Cleaning /mnt/nfs/centos/hpc-tests/stage/um6p/roce-gcc9-ompi3-ucx/openfoam/Openfoam_Mbike_um6p_roce_gcc9_ompi3_ucx_1792_56 case
Running surfaceFeatureExtract on /mnt/nfs/centos/hpc-tests/stage/um6p/roce-gcc9-ompi3-ucx/openfoam/Openfoam_Mbike_um6p_roce_gcc9_ompi3_ucx_1792_56
Running blockMesh on /mnt/nfs/centos/hpc-tests/stage/um6p/roce-gcc9-ompi3-ucx/openfoam/Openfoam_Mbike_um6p_roce_gcc9_ompi3_ucx_1792_56
Running decomposePar on /mnt/nfs/centos/hpc-tests/stage/um6p/roce-gcc9-ompi3-ucx/openfoam/Openfoam_Mbike_um6p_roce_gcc9_ompi3_ucx_1792_56
Running snappyHexMesh in parallel on /mnt/nfs/centos/hpc-tests/stage/um6p/roce-gcc9-ompi3-ucx/openfoam/Openfoam_Mbike_um6p_roce_gcc9_ompi3_ucx_1792_56 using 1792 processes
/*---------------------------------------------------------------------------*\
  =========                 |
  \\      /  F ield         | OpenFOAM: The Open Source CFD Toolbox
   \\    /   O peration     | Website:  https://openfoam.org
    \\  /    A nd           | Version:  7
     \\/     M anipulation  |
\*---------------------------------------------------------------------------*/
Build  : 7
Exec   : /mnt/nfs/centos/spack/opt/spack/linux-centos8-cascadelake/gcc-9.1.0/openfoam-org-7-zryeyvlnfkqxntja2cherz777tacsdo2/platforms/linux64GccDPInt32-spack/bin/simpleFoam -parallel
Date   : Dec 16 2020
Time   : 17:49:54
Host   : "cpu-h23b5-u9-svn2.cloud.um6p.ma"
PID    : 56045
I/O    : uncollated
Case   : /mnt/nfs/centos/hpc-tests/stage/um6p/roce-gcc9-ompi3-ucx/openfoam/Openfoam_Mbike_um6p_roce_gcc9_ompi3_ucx_1792_56
nProcs : 1792
Slaves : 
1791
(
"cpu-h23b5-u9-svn2.cloud.um6p.ma.56046"
"cpu-h23b5-u9-svn2.cloud.um6p.ma.56047"
"cpu-h23b5-u9-svn2.cloud.um6p.ma.56048"
"cpu-h23b5-u9-svn2.cloud.um6p.ma.56049"
"cpu-h23b5-u9-svn2.cloud.um6p.ma.56050"
"cpu-h23b5-u9-svn2.cloud.um6p.ma.56051"
"cpu-h23b5-u9-svn2.cloud.um6p.ma.56052"
"cpu-h23b5-u9-svn2.cloud.um6p.ma.56053"
"cpu-h23b5-u9-svn2.cloud.um6p.ma.56054"
"cpu-h23b5-u9-svn2.cloud.um6p.ma.56055"
"cpu-h23b5-u9-svn2.cloud.um6p.ma.56056"
"cpu-h23b5-u9-svn2.cloud.um6p.ma.56057"
"cpu-h23b5-u9-svn2.cloud.um6p.ma.56058"
"cpu-h23b5-u9-svn2.cloud.um6p.ma.56059"
"cpu-h23b5-u9-svn2.cloud.um6p.ma.56060"
"cpu-h23b5-u9-svn2.cloud.um6p.ma.56061"
"cpu-h23b5-u9-svn2.cloud.um6p.ma.56062"
"cpu-h23b5-u9-svn2.cloud.um6p.ma.56063"
"cpu-h23b5-u9-svn2.cloud.um6p.ma.56064"
"cpu-h23b5-u9-svn2.cloud.um6p.ma.56065"
"cpu-h23b5-u9-svn2.cloud.um6p.ma.56066"
"cpu-h23b5-u9-svn2.cloud.um6p.ma.56067"
"cpu-h23b5-u9-svn2.cloud.um6p.ma.56068"
"cpu-h23b5-u9-svn2.cloud.um6p.ma.56069"
"cpu-h23b5-u9-svn2.cloud.um6p.ma.56070"
"cpu-h23b5-u9-svn2.cloud.um6p.ma.56071"
"cpu-h23b5-u9-svn2.cloud.um6p.ma.56072"
"cpu-h23b5-u9-svn2.cloud.um6p.ma.56073"
"cpu-h23b5-u9-svn2.cloud.um6p.ma.56074"
"cpu-h23b5-u9-svn2.cloud.um6p.ma.56075"
"cpu-h23b5-u9-svn2.cloud.um6p.ma.56076"
"cpu-h23b5-u9-svn2.cloud.um6p.ma.56077"
"cpu-h23b5-u9-svn2.cloud.um6p.ma.56078"
"cpu-h23b5-u9-svn2.cloud.um6p.ma.56079"
"cpu-h23b5-u9-svn2.cloud.um6p.ma.56080"
"cpu-h23b5-u9-svn2.cloud.um6p.ma.56081"
"cpu-h23b5-u9-svn2.cloud.um6p.ma.56082"
"cpu-h23b5-u9-svn2.cloud.um6p.ma.56083"
"cpu-h23b5-u9-svn2.cloud.um6p.ma.56084"
"cpu-h23b5-u9-svn2.cloud.um6p.ma.56085"
"cpu-h23b5-u9-svn2.cloud.um6p.ma.56086"
"cpu-h23b5-u9-svn2.cloud.um6p.ma.56087"
"cpu-h23b5-u9-svn2.cloud.um6p.ma.56088"
"cpu-h23b5-u9-svn2.cloud.um6p.ma.56089"
"cpu-h23b5-u9-svn2.cloud.um6p.ma.56090"
"cpu-h23b5-u9-svn2.cloud.um6p.ma.56091"
"cpu-h23b5-u9-svn2.cloud.um6p.ma.56092"
"cpu-h23b5-u9-svn2.cloud.um6p.ma.56093"
"cpu-h23b5-u9-svn2.cloud.um6p.ma.56094"
"cpu-h23b5-u9-svn2.cloud.um6p.ma.56095"
"cpu-h23b5-u9-svn2.cloud.um6p.ma.56096"
"cpu-h23b5-u9-svn2.cloud.um6p.ma.56097"
"cpu-h23b5-u9-svn2.cloud.um6p.ma.56098"
"cpu-h23b5-u9-svn2.cloud.um6p.ma.56099"
"cpu-h23b5-u9-svn2.cloud.um6p.ma.56100"
"cpu-h23b5-u9-svn4.cloud.um6p.ma.51929"
"cpu-h23b5-u9-svn4.cloud.um6p.ma.51930"
"cpu-h23b5-u9-svn4.cloud.um6p.ma.51931"
"cpu-h23b5-u9-svn4.cloud.um6p.ma.51932"
"cpu-h23b5-u9-svn4.cloud.um6p.ma.51933"
"cpu-h23b5-u9-svn4.cloud.um6p.ma.51934"
"cpu-h23b5-u9-svn4.cloud.um6p.ma.51935"
"cpu-h23b5-u9-svn4.cloud.um6p.ma.51936"
"cpu-h23b5-u9-svn4.cloud.um6p.ma.51937"
"cpu-h23b5-u9-svn4.cloud.um6p.ma.51938"
"cpu-h23b5-u9-svn4.cloud.um6p.ma.51939"
"cpu-h23b5-u9-svn4.cloud.um6p.ma.51940"
"cpu-h23b5-u9-svn4.cloud.um6p.ma.51941"
"cpu-h23b5-u9-svn4.cloud.um6p.ma.51942"
"cpu-h23b5-u9-svn4.cloud.um6p.ma.51943"
"cpu-h23b5-u9-svn4.cloud.um6p.ma.51944"
"cpu-h23b5-u9-svn4.cloud.um6p.ma.51945"
"cpu-h23b5-u9-svn4.cloud.um6p.ma.51946"
"cpu-h23b5-u9-svn4.cloud.um6p.ma.51947"
"cpu-h23b5-u9-svn4.cloud.um6p.ma.51948"
"cpu-h23b5-u9-svn4.cloud.um6p.ma.51949"
"cpu-h23b5-u9-svn4.cloud.um6p.ma.51950"
"cpu-h23b5-u9-svn4.cloud.um6p.ma.51951"
"cpu-h23b5-u9-svn4.cloud.um6p.ma.51952"
"cpu-h23b5-u9-svn4.cloud.um6p.ma.51953"
"cpu-h23b5-u9-svn4.cloud.um6p.ma.51954"
"cpu-h23b5-u9-svn4.cloud.um6p.ma.51955"
"cpu-h23b5-u9-svn4.cloud.um6p.ma.51956"
"cpu-h23b5-u9-svn4.cloud.um6p.ma.51957"
"cpu-h23b5-u9-svn4.cloud.um6p.ma.51958"
"cpu-h23b5-u9-svn4.cloud.um6p.ma.51959"
"cpu-h23b5-u9-svn4.cloud.um6p.ma.51960"
"cpu-h23b5-u9-svn4.cloud.um6p.ma.51961"
"cpu-h23b5-u9-svn4.cloud.um6p.ma.51962"
"cpu-h23b5-u9-svn4.cloud.um6p.ma.51963"
"cpu-h23b5-u9-svn4.cloud.um6p.ma.51964"
"cpu-h23b5-u9-svn4.cloud.um6p.ma.51965"
"cpu-h23b5-u9-svn4.cloud.um6p.ma.51966"
"cpu-h23b5-u9-svn4.cloud.um6p.ma.51967"
"cpu-h23b5-u9-svn4.cloud.um6p.ma.51968"
"cpu-h23b5-u9-svn4.cloud.um6p.ma.51969"
"cpu-h23b5-u9-svn4.cloud.um6p.ma.51970"
"cpu-h23b5-u9-svn4.cloud.um6p.ma.51971"
"cpu-h23b5-u9-svn4.cloud.um6p.ma.51972"
"cpu-h23b5-u9-svn4.cloud.um6p.ma.51973"
"cpu-h23b5-u9-svn4.cloud.um6p.ma.51974"
"cpu-h23b5-u9-svn4.cloud.um6p.ma.51975"
"cpu-h23b5-u9-svn4.cloud.um6p.ma.51976"
"cpu-h23b5-u9-svn4.cloud.um6p.ma.51977"
"cpu-h23b5-u9-svn4.cloud.um6p.ma.51978"
"cpu-h23b5-u9-svn4.cloud.um6p.ma.51979"
"cpu-h23b5-u9-svn4.cloud.um6p.ma.51980"
"cpu-h23b5-u9-svn4.cloud.um6p.ma.51981"
"cpu-h23b5-u9-svn4.cloud.um6p.ma.51982"
"cpu-h23b5-u9-svn4.cloud.um6p.ma.51983"
"cpu-h23b5-u9-svn4.cloud.um6p.ma.51984"
"cpu-h23b5-u10-svn1.cloud.um6p.ma.52140"
"cpu-h23b5-u10-svn1.cloud.um6p.ma.52141"
"cpu-h23b5-u10-svn1.cloud.um6p.ma.52142"
"cpu-h23b5-u10-svn1.cloud.um6p.ma.52143"
"cpu-h23b5-u10-svn1.cloud.um6p.ma.52144"
"cpu-h23b5-u10-svn1.cloud.um6p.ma.52145"
"cpu-h23b5-u10-svn1.cloud.um6p.ma.52146"
"cpu-h23b5-u10-svn1.cloud.um6p.ma.52147"
"cpu-h23b5-u10-svn1.cloud.um6p.ma.52148"
"cpu-h23b5-u10-svn1.cloud.um6p.ma.52149"
"cpu-h23b5-u10-svn1.cloud.um6p.ma.52150"
"cpu-h23b5-u10-svn1.cloud.um6p.ma.52151"
"cpu-h23b5-u10-svn1.cloud.um6p.ma.52152"
"cpu-h23b5-u10-svn1.cloud.um6p.ma.52153"
"cpu-h23b5-u10-svn1.cloud.um6p.ma.52154"
"cpu-h23b5-u10-svn1.cloud.um6p.ma.52155"
"cpu-h23b5-u10-svn1.cloud.um6p.ma.52156"
"cpu-h23b5-u10-svn1.cloud.um6p.ma.52157"
"cpu-h23b5-u10-svn1.cloud.um6p.ma.52158"
"cpu-h23b5-u10-svn1.cloud.um6p.ma.52159"
"cpu-h23b5-u10-svn1.cloud.um6p.ma.52160"
"cpu-h23b5-u10-svn1.cloud.um6p.ma.52161"
"cpu-h23b5-u10-svn1.cloud.um6p.ma.52162"
"cpu-h23b5-u10-svn1.cloud.um6p.ma.52163"
"cpu-h23b5-u10-svn1.cloud.um6p.ma.52164"
"cpu-h23b5-u10-svn1.cloud.um6p.ma.52165"
"cpu-h23b5-u10-svn1.cloud.um6p.ma.52166"
"cpu-h23b5-u10-svn1.cloud.um6p.ma.52167"
"cpu-h23b5-u10-svn1.cloud.um6p.ma.52168"
"cpu-h23b5-u10-svn1.cloud.um6p.ma.52169"
"cpu-h23b5-u10-svn1.cloud.um6p.ma.52170"
"cpu-h23b5-u10-svn1.cloud.um6p.ma.52171"
"cpu-h23b5-u10-svn1.cloud.um6p.ma.52172"
"cpu-h23b5-u10-svn1.cloud.um6p.ma.52173"
"cpu-h23b5-u10-svn1.cloud.um6p.ma.52174"
"cpu-h23b5-u10-svn1.cloud.um6p.ma.52175"
"cpu-h23b5-u10-svn1.cloud.um6p.ma.52176"
"cpu-h23b5-u10-svn1.cloud.um6p.ma.52177"
"cpu-h23b5-u10-svn1.cloud.um6p.ma.52178"
"cpu-h23b5-u10-svn1.cloud.um6p.ma.52179"
"cpu-h23b5-u10-svn1.cloud.um6p.ma.52180"
"cpu-h23b5-u10-svn1.cloud.um6p.ma.52181"
"cpu-h23b5-u10-svn1.cloud.um6p.ma.52182"
"cpu-h23b5-u10-svn1.cloud.um6p.ma.52183"
"cpu-h23b5-u10-svn1.cloud.um6p.ma.52184"
"cpu-h23b5-u10-svn1.cloud.um6p.ma.52185"
"cpu-h23b5-u10-svn1.cloud.um6p.ma.52186"
"cpu-h23b5-u10-svn1.cloud.um6p.ma.52187"
"cpu-h23b5-u10-svn1.cloud.um6p.ma.52188"
"cpu-h23b5-u10-svn1.cloud.um6p.ma.52189"
"cpu-h23b5-u10-svn1.cloud.um6p.ma.52190"
"cpu-h23b5-u10-svn1.cloud.um6p.ma.52191"
"cpu-h23b5-u10-svn1.cloud.um6p.ma.52192"
"cpu-h23b5-u10-svn1.cloud.um6p.ma.52193"
"cpu-h23b5-u10-svn1.cloud.um6p.ma.52194"
"cpu-h23b5-u10-svn1.cloud.um6p.ma.52195"
"cpu-h23b5-u10-svn3.cloud.um6p.ma.55894"
"cpu-h23b5-u10-svn3.cloud.um6p.ma.55895"
"cpu-h23b5-u10-svn3.cloud.um6p.ma.55896"
"cpu-h23b5-u10-svn3.cloud.um6p.ma.55897"
"cpu-h23b5-u10-svn3.cloud.um6p.ma.55898"
"cpu-h23b5-u10-svn3.cloud.um6p.ma.55899"
"cpu-h23b5-u10-svn3.cloud.um6p.ma.55900"
"cpu-h23b5-u10-svn3.cloud.um6p.ma.55901"
"cpu-h23b5-u10-svn3.cloud.um6p.ma.55902"
"cpu-h23b5-u10-svn3.cloud.um6p.ma.55903"
"cpu-h23b5-u10-svn3.cloud.um6p.ma.55904"
"cpu-h23b5-u10-svn3.cloud.um6p.ma.55905"
"cpu-h23b5-u10-svn3.cloud.um6p.ma.55906"
"cpu-h23b5-u10-svn3.cloud.um6p.ma.55907"
"cpu-h23b5-u10-svn3.cloud.um6p.ma.55908"
"cpu-h23b5-u10-svn3.cloud.um6p.ma.55909"
"cpu-h23b5-u10-svn3.cloud.um6p.ma.55910"
"cpu-h23b5-u10-svn3.cloud.um6p.ma.55911"
"cpu-h23b5-u10-svn3.cloud.um6p.ma.55912"
"cpu-h23b5-u10-svn3.cloud.um6p.ma.55913"
"cpu-h23b5-u10-svn3.cloud.um6p.ma.55914"
"cpu-h23b5-u10-svn3.cloud.um6p.ma.55915"
"cpu-h23b5-u10-svn3.cloud.um6p.ma.55916"
"cpu-h23b5-u10-svn3.cloud.um6p.ma.55917"
"cpu-h23b5-u10-svn3.cloud.um6p.ma.55918"
"cpu-h23b5-u10-svn3.cloud.um6p.ma.55919"
"cpu-h23b5-u10-svn3.cloud.um6p.ma.55920"
"cpu-h23b5-u10-svn3.cloud.um6p.ma.55921"
"cpu-h23b5-u10-svn3.cloud.um6p.ma.55922"
"cpu-h23b5-u10-svn3.cloud.um6p.ma.55923"
"cpu-h23b5-u10-svn3.cloud.um6p.ma.55924"
"cpu-h23b5-u10-svn3.cloud.um6p.ma.55925"
"cpu-h23b5-u10-svn3.cloud.um6p.ma.55926"
"cpu-h23b5-u10-svn3.cloud.um6p.ma.55927"
"cpu-h23b5-u10-svn3.cloud.um6p.ma.55928"
"cpu-h23b5-u10-svn3.cloud.um6p.ma.55929"
"cpu-h23b5-u10-svn3.cloud.um6p.ma.55930"
"cpu-h23b5-u10-svn3.cloud.um6p.ma.55931"
"cpu-h23b5-u10-svn3.cloud.um6p.ma.55932"
"cpu-h23b5-u10-svn3.cloud.um6p.ma.55933"
"cpu-h23b5-u10-svn3.cloud.um6p.ma.55934"
"cpu-h23b5-u10-svn3.cloud.um6p.ma.55935"
"cpu-h23b5-u10-svn3.cloud.um6p.ma.55936"
"cpu-h23b5-u10-svn3.cloud.um6p.ma.55937"
"cpu-h23b5-u10-svn3.cloud.um6p.ma.55938"
"cpu-h23b5-u10-svn3.cloud.um6p.ma.55939"
"cpu-h23b5-u10-svn3.cloud.um6p.ma.55940"
"cpu-h23b5-u10-svn3.cloud.um6p.ma.55941"
"cpu-h23b5-u10-svn3.cloud.um6p.ma.55942"
"cpu-h23b5-u10-svn3.cloud.um6p.ma.55943"
"cpu-h23b5-u10-svn3.cloud.um6p.ma.55944"
"cpu-h23b5-u10-svn3.cloud.um6p.ma.55945"
"cpu-h23b5-u10-svn3.cloud.um6p.ma.55946"
"cpu-h23b5-u10-svn3.cloud.um6p.ma.55947"
"cpu-h23b5-u10-svn3.cloud.um6p.ma.55948"
"cpu-h23b5-u10-svn3.cloud.um6p.ma.55949"
"cpu-h23b5-u11-svn2.cloud.um6p.ma.50783"
"cpu-h23b5-u11-svn2.cloud.um6p.ma.50784"
"cpu-h23b5-u11-svn2.cloud.um6p.ma.50785"
"cpu-h23b5-u11-svn2.cloud.um6p.ma.50786"
"cpu-h23b5-u11-svn2.cloud.um6p.ma.50787"
"cpu-h23b5-u11-svn2.cloud.um6p.ma.50788"
"cpu-h23b5-u11-svn2.cloud.um6p.ma.50789"
"cpu-h23b5-u11-svn2.cloud.um6p.ma.50790"
"cpu-h23b5-u11-svn2.cloud.um6p.ma.50791"
"cpu-h23b5-u11-svn2.cloud.um6p.ma.50792"
"cpu-h23b5-u11-svn2.cloud.um6p.ma.50793"
"cpu-h23b5-u11-svn2.cloud.um6p.ma.50794"
"cpu-h23b5-u11-svn2.cloud.um6p.ma.50795"
"cpu-h23b5-u11-svn2.cloud.um6p.ma.50796"
"cpu-h23b5-u11-svn2.cloud.um6p.ma.50797"
"cpu-h23b5-u11-svn2.cloud.um6p.ma.50798"
"cpu-h23b5-u11-svn2.cloud.um6p.ma.50799"
"cpu-h23b5-u11-svn2.cloud.um6p.ma.50800"
"cpu-h23b5-u11-svn2.cloud.um6p.ma.50801"
"cpu-h23b5-u11-svn2.cloud.um6p.ma.50802"
"cpu-h23b5-u11-svn2.cloud.um6p.ma.50803"
"cpu-h23b5-u11-svn2.cloud.um6p.ma.50804"
"cpu-h23b5-u11-svn2.cloud.um6p.ma.50805"
"cpu-h23b5-u11-svn2.cloud.um6p.ma.50806"
"cpu-h23b5-u11-svn2.cloud.um6p.ma.50807"
"cpu-h23b5-u11-svn2.cloud.um6p.ma.50808"
"cpu-h23b5-u11-svn2.cloud.um6p.ma.50809"
"cpu-h23b5-u11-svn2.cloud.um6p.ma.50810"
"cpu-h23b5-u11-svn2.cloud.um6p.ma.50811"
"cpu-h23b5-u11-svn2.cloud.um6p.ma.50812"
"cpu-h23b5-u11-svn2.cloud.um6p.ma.50813"
"cpu-h23b5-u11-svn2.cloud.um6p.ma.50814"
"cpu-h23b5-u11-svn2.cloud.um6p.ma.50815"
"cpu-h23b5-u11-svn2.cloud.um6p.ma.50816"
"cpu-h23b5-u11-svn2.cloud.um6p.ma.50817"
"cpu-h23b5-u11-svn2.cloud.um6p.ma.50818"
"cpu-h23b5-u11-svn2.cloud.um6p.ma.50819"
"cpu-h23b5-u11-svn2.cloud.um6p.ma.50820"
"cpu-h23b5-u11-svn2.cloud.um6p.ma.50821"
"cpu-h23b5-u11-svn2.cloud.um6p.ma.50822"
"cpu-h23b5-u11-svn2.cloud.um6p.ma.50823"
"cpu-h23b5-u11-svn2.cloud.um6p.ma.50824"
"cpu-h23b5-u11-svn2.cloud.um6p.ma.50825"
"cpu-h23b5-u11-svn2.cloud.um6p.ma.50826"
"cpu-h23b5-u11-svn2.cloud.um6p.ma.50827"
"cpu-h23b5-u11-svn2.cloud.um6p.ma.50828"
"cpu-h23b5-u11-svn2.cloud.um6p.ma.50829"
"cpu-h23b5-u11-svn2.cloud.um6p.ma.50830"
"cpu-h23b5-u11-svn2.cloud.um6p.ma.50831"
"cpu-h23b5-u11-svn2.cloud.um6p.ma.50832"
"cpu-h23b5-u11-svn2.cloud.um6p.ma.50833"
"cpu-h23b5-u11-svn2.cloud.um6p.ma.50834"
"cpu-h23b5-u11-svn2.cloud.um6p.ma.50835"
"cpu-h23b5-u11-svn2.cloud.um6p.ma.50836"
"cpu-h23b5-u11-svn2.cloud.um6p.ma.50837"
"cpu-h23b5-u11-svn2.cloud.um6p.ma.50838"
"cpu-h23b5-u11-svn4.cloud.um6p.ma.50698"
"cpu-h23b5-u11-svn4.cloud.um6p.ma.50699"
"cpu-h23b5-u11-svn4.cloud.um6p.ma.50700"
"cpu-h23b5-u11-svn4.cloud.um6p.ma.50701"
"cpu-h23b5-u11-svn4.cloud.um6p.ma.50702"
"cpu-h23b5-u11-svn4.cloud.um6p.ma.50703"
"cpu-h23b5-u11-svn4.cloud.um6p.ma.50704"
"cpu-h23b5-u11-svn4.cloud.um6p.ma.50705"
"cpu-h23b5-u11-svn4.cloud.um6p.ma.50706"
"cpu-h23b5-u11-svn4.cloud.um6p.ma.50707"
"cpu-h23b5-u11-svn4.cloud.um6p.ma.50708"
"cpu-h23b5-u11-svn4.cloud.um6p.ma.50709"
"cpu-h23b5-u11-svn4.cloud.um6p.ma.50710"
"cpu-h23b5-u11-svn4.cloud.um6p.ma.50711"
"cpu-h23b5-u11-svn4.cloud.um6p.ma.50712"
"cpu-h23b5-u11-svn4.cloud.um6p.ma.50713"
"cpu-h23b5-u11-svn4.cloud.um6p.ma.50714"
"cpu-h23b5-u11-svn4.cloud.um6p.ma.50715"
"cpu-h23b5-u11-svn4.cloud.um6p.ma.50716"
"cpu-h23b5-u11-svn4.cloud.um6p.ma.50717"
"cpu-h23b5-u11-svn4.cloud.um6p.ma.50718"
"cpu-h23b5-u11-svn4.cloud.um6p.ma.50719"
"cpu-h23b5-u11-svn4.cloud.um6p.ma.50720"
"cpu-h23b5-u11-svn4.cloud.um6p.ma.50721"
"cpu-h23b5-u11-svn4.cloud.um6p.ma.50722"
"cpu-h23b5-u11-svn4.cloud.um6p.ma.50723"
"cpu-h23b5-u11-svn4.cloud.um6p.ma.50724"
"cpu-h23b5-u11-svn4.cloud.um6p.ma.50725"
"cpu-h23b5-u11-svn4.cloud.um6p.ma.50726"
"cpu-h23b5-u11-svn4.cloud.um6p.ma.50727"
"cpu-h23b5-u11-svn4.cloud.um6p.ma.50728"
"cpu-h23b5-u11-svn4.cloud.um6p.ma.50729"
"cpu-h23b5-u11-svn4.cloud.um6p.ma.50730"
"cpu-h23b5-u11-svn4.cloud.um6p.ma.50731"
"cpu-h23b5-u11-svn4.cloud.um6p.ma.50732"
"cpu-h23b5-u11-svn4.cloud.um6p.ma.50733"
"cpu-h23b5-u11-svn4.cloud.um6p.ma.50734"
"cpu-h23b5-u11-svn4.cloud.um6p.ma.50735"
"cpu-h23b5-u11-svn4.cloud.um6p.ma.50736"
"cpu-h23b5-u11-svn4.cloud.um6p.ma.50737"
"cpu-h23b5-u11-svn4.cloud.um6p.ma.50738"
"cpu-h23b5-u11-svn4.cloud.um6p.ma.50739"
"cpu-h23b5-u11-svn4.cloud.um6p.ma.50740"
"cpu-h23b5-u11-svn4.cloud.um6p.ma.50741"
"cpu-h23b5-u11-svn4.cloud.um6p.ma.50742"
"cpu-h23b5-u11-svn4.cloud.um6p.ma.50743"
"cpu-h23b5-u11-svn4.cloud.um6p.ma.50744"
"cpu-h23b5-u11-svn4.cloud.um6p.ma.50745"
"cpu-h23b5-u11-svn4.cloud.um6p.ma.50746"
"cpu-h23b5-u11-svn4.cloud.um6p.ma.50747"
"cpu-h23b5-u11-svn4.cloud.um6p.ma.50748"
"cpu-h23b5-u11-svn4.cloud.um6p.ma.50749"
"cpu-h23b5-u11-svn4.cloud.um6p.ma.50750"
"cpu-h23b5-u11-svn4.cloud.um6p.ma.50751"
"cpu-h23b5-u11-svn4.cloud.um6p.ma.50752"
"cpu-h23b5-u11-svn4.cloud.um6p.ma.50753"
"cpu-h23b5-u12-svn1.cloud.um6p.ma.53361"
"cpu-h23b5-u12-svn1.cloud.um6p.ma.53362"
"cpu-h23b5-u12-svn1.cloud.um6p.ma.53363"
"cpu-h23b5-u12-svn1.cloud.um6p.ma.53364"
"cpu-h23b5-u12-svn1.cloud.um6p.ma.53365"
"cpu-h23b5-u12-svn1.cloud.um6p.ma.53366"
"cpu-h23b5-u12-svn1.cloud.um6p.ma.53367"
"cpu-h23b5-u12-svn1.cloud.um6p.ma.53368"
"cpu-h23b5-u12-svn1.cloud.um6p.ma.53369"
"cpu-h23b5-u12-svn1.cloud.um6p.ma.53370"
"cpu-h23b5-u12-svn1.cloud.um6p.ma.53371"
"cpu-h23b5-u12-svn1.cloud.um6p.ma.53372"
"cpu-h23b5-u12-svn1.cloud.um6p.ma.53373"
"cpu-h23b5-u12-svn1.cloud.um6p.ma.53374"
"cpu-h23b5-u12-svn1.cloud.um6p.ma.53375"
"cpu-h23b5-u12-svn1.cloud.um6p.ma.53376"
"cpu-h23b5-u12-svn1.cloud.um6p.ma.53377"
"cpu-h23b5-u12-svn1.cloud.um6p.ma.53378"
"cpu-h23b5-u12-svn1.cloud.um6p.ma.53379"
"cpu-h23b5-u12-svn1.cloud.um6p.ma.53380"
"cpu-h23b5-u12-svn1.cloud.um6p.ma.53381"
"cpu-h23b5-u12-svn1.cloud.um6p.ma.53382"
"cpu-h23b5-u12-svn1.cloud.um6p.ma.53383"
"cpu-h23b5-u12-svn1.cloud.um6p.ma.53384"
"cpu-h23b5-u12-svn1.cloud.um6p.ma.53385"
"cpu-h23b5-u12-svn1.cloud.um6p.ma.53386"
"cpu-h23b5-u12-svn1.cloud.um6p.ma.53387"
"cpu-h23b5-u12-svn1.cloud.um6p.ma.53388"
"cpu-h23b5-u12-svn1.cloud.um6p.ma.53389"
"cpu-h23b5-u12-svn1.cloud.um6p.ma.53390"
"cpu-h23b5-u12-svn1.cloud.um6p.ma.53391"
"cpu-h23b5-u12-svn1.cloud.um6p.ma.53392"
"cpu-h23b5-u12-svn1.cloud.um6p.ma.53393"
"cpu-h23b5-u12-svn1.cloud.um6p.ma.53394"
"cpu-h23b5-u12-svn1.cloud.um6p.ma.53395"
"cpu-h23b5-u12-svn1.cloud.um6p.ma.53396"
"cpu-h23b5-u12-svn1.cloud.um6p.ma.53397"
"cpu-h23b5-u12-svn1.cloud.um6p.ma.53398"
"cpu-h23b5-u12-svn1.cloud.um6p.ma.53399"
"cpu-h23b5-u12-svn1.cloud.um6p.ma.53400"
"cpu-h23b5-u12-svn1.cloud.um6p.ma.53401"
"cpu-h23b5-u12-svn1.cloud.um6p.ma.53402"
"cpu-h23b5-u12-svn1.cloud.um6p.ma.53403"
"cpu-h23b5-u12-svn1.cloud.um6p.ma.53404"
"cpu-h23b5-u12-svn1.cloud.um6p.ma.53405"
"cpu-h23b5-u12-svn1.cloud.um6p.ma.53406"
"cpu-h23b5-u12-svn1.cloud.um6p.ma.53407"
"cpu-h23b5-u12-svn1.cloud.um6p.ma.53408"
"cpu-h23b5-u12-svn1.cloud.um6p.ma.53409"
"cpu-h23b5-u12-svn1.cloud.um6p.ma.53410"
"cpu-h23b5-u12-svn1.cloud.um6p.ma.53411"
"cpu-h23b5-u12-svn1.cloud.um6p.ma.53412"
"cpu-h23b5-u12-svn1.cloud.um6p.ma.53413"
"cpu-h23b5-u12-svn1.cloud.um6p.ma.53414"
"cpu-h23b5-u12-svn1.cloud.um6p.ma.53415"
"cpu-h23b5-u12-svn1.cloud.um6p.ma.53416"
"cpu-h23b5-u12-svn3.cloud.um6p.ma.71737"
"cpu-h23b5-u12-svn3.cloud.um6p.ma.71738"
"cpu-h23b5-u12-svn3.cloud.um6p.ma.71739"
"cpu-h23b5-u12-svn3.cloud.um6p.ma.71740"
"cpu-h23b5-u12-svn3.cloud.um6p.ma.71741"
"cpu-h23b5-u12-svn3.cloud.um6p.ma.71742"
"cpu-h23b5-u12-svn3.cloud.um6p.ma.71743"
"cpu-h23b5-u12-svn3.cloud.um6p.ma.71744"
"cpu-h23b5-u12-svn3.cloud.um6p.ma.71745"
"cpu-h23b5-u12-svn3.cloud.um6p.ma.71746"
"cpu-h23b5-u12-svn3.cloud.um6p.ma.71747"
"cpu-h23b5-u12-svn3.cloud.um6p.ma.71748"
"cpu-h23b5-u12-svn3.cloud.um6p.ma.71749"
"cpu-h23b5-u12-svn3.cloud.um6p.ma.71750"
"cpu-h23b5-u12-svn3.cloud.um6p.ma.71751"
"cpu-h23b5-u12-svn3.cloud.um6p.ma.71752"
"cpu-h23b5-u12-svn3.cloud.um6p.ma.71753"
"cpu-h23b5-u12-svn3.cloud.um6p.ma.71754"
"cpu-h23b5-u12-svn3.cloud.um6p.ma.71755"
"cpu-h23b5-u12-svn3.cloud.um6p.ma.71756"
"cpu-h23b5-u12-svn3.cloud.um6p.ma.71757"
"cpu-h23b5-u12-svn3.cloud.um6p.ma.71758"
"cpu-h23b5-u12-svn3.cloud.um6p.ma.71759"
"cpu-h23b5-u12-svn3.cloud.um6p.ma.71760"
"cpu-h23b5-u12-svn3.cloud.um6p.ma.71761"
"cpu-h23b5-u12-svn3.cloud.um6p.ma.71762"
"cpu-h23b5-u12-svn3.cloud.um6p.ma.71763"
"cpu-h23b5-u12-svn3.cloud.um6p.ma.71764"
"cpu-h23b5-u12-svn3.cloud.um6p.ma.71765"
"cpu-h23b5-u12-svn3.cloud.um6p.ma.71766"
"cpu-h23b5-u12-svn3.cloud.um6p.ma.71767"
"cpu-h23b5-u12-svn3.cloud.um6p.ma.71768"
"cpu-h23b5-u12-svn3.cloud.um6p.ma.71769"
"cpu-h23b5-u12-svn3.cloud.um6p.ma.71770"
"cpu-h23b5-u12-svn3.cloud.um6p.ma.71771"
"cpu-h23b5-u12-svn3.cloud.um6p.ma.71772"
"cpu-h23b5-u12-svn3.cloud.um6p.ma.71773"
"cpu-h23b5-u12-svn3.cloud.um6p.ma.71774"
"cpu-h23b5-u12-svn3.cloud.um6p.ma.71775"
"cpu-h23b5-u12-svn3.cloud.um6p.ma.71776"
"cpu-h23b5-u12-svn3.cloud.um6p.ma.71777"
"cpu-h23b5-u12-svn3.cloud.um6p.ma.71778"
"cpu-h23b5-u12-svn3.cloud.um6p.ma.71779"
"cpu-h23b5-u12-svn3.cloud.um6p.ma.71780"
"cpu-h23b5-u12-svn3.cloud.um6p.ma.71781"
"cpu-h23b5-u12-svn3.cloud.um6p.ma.71782"
"cpu-h23b5-u12-svn3.cloud.um6p.ma.71783"
"cpu-h23b5-u12-svn3.cloud.um6p.ma.71784"
"cpu-h23b5-u12-svn3.cloud.um6p.ma.71785"
"cpu-h23b5-u12-svn3.cloud.um6p.ma.71786"
"cpu-h23b5-u12-svn3.cloud.um6p.ma.71787"
"cpu-h23b5-u12-svn3.cloud.um6p.ma.71788"
"cpu-h23b5-u12-svn3.cloud.um6p.ma.71789"
"cpu-h23b5-u12-svn3.cloud.um6p.ma.71790"
"cpu-h23b5-u12-svn3.cloud.um6p.ma.71791"
"cpu-h23b5-u12-svn3.cloud.um6p.ma.71792"
"cpu-h23b5-u13-svn2.cloud.um6p.ma.49650"
"cpu-h23b5-u13-svn2.cloud.um6p.ma.49651"
"cpu-h23b5-u13-svn2.cloud.um6p.ma.49652"
"cpu-h23b5-u13-svn2.cloud.um6p.ma.49653"
"cpu-h23b5-u13-svn2.cloud.um6p.ma.49654"
"cpu-h23b5-u13-svn2.cloud.um6p.ma.49655"
"cpu-h23b5-u13-svn2.cloud.um6p.ma.49656"
"cpu-h23b5-u13-svn2.cloud.um6p.ma.49657"
"cpu-h23b5-u13-svn2.cloud.um6p.ma.49658"
"cpu-h23b5-u13-svn2.cloud.um6p.ma.49659"
"cpu-h23b5-u13-svn2.cloud.um6p.ma.49660"
"cpu-h23b5-u13-svn2.cloud.um6p.ma.49661"
"cpu-h23b5-u13-svn2.cloud.um6p.ma.49662"
"cpu-h23b5-u13-svn2.cloud.um6p.ma.49663"
"cpu-h23b5-u13-svn2.cloud.um6p.ma.49664"
"cpu-h23b5-u13-svn2.cloud.um6p.ma.49665"
"cpu-h23b5-u13-svn2.cloud.um6p.ma.49666"
"cpu-h23b5-u13-svn2.cloud.um6p.ma.49667"
"cpu-h23b5-u13-svn2.cloud.um6p.ma.49668"
"cpu-h23b5-u13-svn2.cloud.um6p.ma.49669"
"cpu-h23b5-u13-svn2.cloud.um6p.ma.49670"
"cpu-h23b5-u13-svn2.cloud.um6p.ma.49671"
"cpu-h23b5-u13-svn2.cloud.um6p.ma.49672"
"cpu-h23b5-u13-svn2.cloud.um6p.ma.49673"
"cpu-h23b5-u13-svn2.cloud.um6p.ma.49674"
"cpu-h23b5-u13-svn2.cloud.um6p.ma.49675"
"cpu-h23b5-u13-svn2.cloud.um6p.ma.49676"
"cpu-h23b5-u13-svn2.cloud.um6p.ma.49677"
"cpu-h23b5-u13-svn2.cloud.um6p.ma.49678"
"cpu-h23b5-u13-svn2.cloud.um6p.ma.49679"
"cpu-h23b5-u13-svn2.cloud.um6p.ma.49680"
"cpu-h23b5-u13-svn2.cloud.um6p.ma.49681"
"cpu-h23b5-u13-svn2.cloud.um6p.ma.49682"
"cpu-h23b5-u13-svn2.cloud.um6p.ma.49683"
"cpu-h23b5-u13-svn2.cloud.um6p.ma.49684"
"cpu-h23b5-u13-svn2.cloud.um6p.ma.49685"
"cpu-h23b5-u13-svn2.cloud.um6p.ma.49686"
"cpu-h23b5-u13-svn2.cloud.um6p.ma.49687"
"cpu-h23b5-u13-svn2.cloud.um6p.ma.49688"
"cpu-h23b5-u13-svn2.cloud.um6p.ma.49689"
"cpu-h23b5-u13-svn2.cloud.um6p.ma.49690"
"cpu-h23b5-u13-svn2.cloud.um6p.ma.49691"
"cpu-h23b5-u13-svn2.cloud.um6p.ma.49692"
"cpu-h23b5-u13-svn2.cloud.um6p.ma.49693"
"cpu-h23b5-u13-svn2.cloud.um6p.ma.49694"
"cpu-h23b5-u13-svn2.cloud.um6p.ma.49695"
"cpu-h23b5-u13-svn2.cloud.um6p.ma.49696"
"cpu-h23b5-u13-svn2.cloud.um6p.ma.49697"
"cpu-h23b5-u13-svn2.cloud.um6p.ma.49698"
"cpu-h23b5-u13-svn2.cloud.um6p.ma.49699"
"cpu-h23b5-u13-svn2.cloud.um6p.ma.49700"
"cpu-h23b5-u13-svn2.cloud.um6p.ma.49701"
"cpu-h23b5-u13-svn2.cloud.um6p.ma.49702"
"cpu-h23b5-u13-svn2.cloud.um6p.ma.49703"
"cpu-h23b5-u13-svn2.cloud.um6p.ma.49704"
"cpu-h23b5-u13-svn2.cloud.um6p.ma.49705"
"cpu-h23b5-u13-svn4.cloud.um6p.ma.52264"
"cpu-h23b5-u13-svn4.cloud.um6p.ma.52265"
"cpu-h23b5-u13-svn4.cloud.um6p.ma.52266"
"cpu-h23b5-u13-svn4.cloud.um6p.ma.52267"
"cpu-h23b5-u13-svn4.cloud.um6p.ma.52268"
"cpu-h23b5-u13-svn4.cloud.um6p.ma.52269"
"cpu-h23b5-u13-svn4.cloud.um6p.ma.52270"
"cpu-h23b5-u13-svn4.cloud.um6p.ma.52271"
"cpu-h23b5-u13-svn4.cloud.um6p.ma.52272"
"cpu-h23b5-u13-svn4.cloud.um6p.ma.52273"
"cpu-h23b5-u13-svn4.cloud.um6p.ma.52274"
"cpu-h23b5-u13-svn4.cloud.um6p.ma.52275"
"cpu-h23b5-u13-svn4.cloud.um6p.ma.52276"
"cpu-h23b5-u13-svn4.cloud.um6p.ma.52277"
"cpu-h23b5-u13-svn4.cloud.um6p.ma.52278"
"cpu-h23b5-u13-svn4.cloud.um6p.ma.52279"
"cpu-h23b5-u13-svn4.cloud.um6p.ma.52280"
"cpu-h23b5-u13-svn4.cloud.um6p.ma.52281"
"cpu-h23b5-u13-svn4.cloud.um6p.ma.52282"
"cpu-h23b5-u13-svn4.cloud.um6p.ma.52283"
"cpu-h23b5-u13-svn4.cloud.um6p.ma.52284"
"cpu-h23b5-u13-svn4.cloud.um6p.ma.52285"
"cpu-h23b5-u13-svn4.cloud.um6p.ma.52286"
"cpu-h23b5-u13-svn4.cloud.um6p.ma.52287"
"cpu-h23b5-u13-svn4.cloud.um6p.ma.52288"
"cpu-h23b5-u13-svn4.cloud.um6p.ma.52289"
"cpu-h23b5-u13-svn4.cloud.um6p.ma.52290"
"cpu-h23b5-u13-svn4.cloud.um6p.ma.52291"
"cpu-h23b5-u13-svn4.cloud.um6p.ma.52292"
"cpu-h23b5-u13-svn4.cloud.um6p.ma.52293"
"cpu-h23b5-u13-svn4.cloud.um6p.ma.52294"
"cpu-h23b5-u13-svn4.cloud.um6p.ma.52295"
"cpu-h23b5-u13-svn4.cloud.um6p.ma.52296"
"cpu-h23b5-u13-svn4.cloud.um6p.ma.52297"
"cpu-h23b5-u13-svn4.cloud.um6p.ma.52298"
"cpu-h23b5-u13-svn4.cloud.um6p.ma.52299"
"cpu-h23b5-u13-svn4.cloud.um6p.ma.52300"
"cpu-h23b5-u13-svn4.cloud.um6p.ma.52301"
"cpu-h23b5-u13-svn4.cloud.um6p.ma.52302"
"cpu-h23b5-u13-svn4.cloud.um6p.ma.52303"
"cpu-h23b5-u13-svn4.cloud.um6p.ma.52304"
"cpu-h23b5-u13-svn4.cloud.um6p.ma.52305"
"cpu-h23b5-u13-svn4.cloud.um6p.ma.52306"
"cpu-h23b5-u13-svn4.cloud.um6p.ma.52307"
"cpu-h23b5-u13-svn4.cloud.um6p.ma.52308"
"cpu-h23b5-u13-svn4.cloud.um6p.ma.52309"
"cpu-h23b5-u13-svn4.cloud.um6p.ma.52310"
"cpu-h23b5-u13-svn4.cloud.um6p.ma.52311"
"cpu-h23b5-u13-svn4.cloud.um6p.ma.52312"
"cpu-h23b5-u13-svn4.cloud.um6p.ma.52313"
"cpu-h23b5-u13-svn4.cloud.um6p.ma.52314"
"cpu-h23b5-u13-svn4.cloud.um6p.ma.52315"
"cpu-h23b5-u13-svn4.cloud.um6p.ma.52316"
"cpu-h23b5-u13-svn4.cloud.um6p.ma.52317"
"cpu-h23b5-u13-svn4.cloud.um6p.ma.52318"
"cpu-h23b5-u13-svn4.cloud.um6p.ma.52319"
"cpu-h23b5-u14-svn1.cloud.um6p.ma.57593"
"cpu-h23b5-u14-svn1.cloud.um6p.ma.57594"
"cpu-h23b5-u14-svn1.cloud.um6p.ma.57595"
"cpu-h23b5-u14-svn1.cloud.um6p.ma.57596"
"cpu-h23b5-u14-svn1.cloud.um6p.ma.57597"
"cpu-h23b5-u14-svn1.cloud.um6p.ma.57598"
"cpu-h23b5-u14-svn1.cloud.um6p.ma.57599"
"cpu-h23b5-u14-svn1.cloud.um6p.ma.57600"
"cpu-h23b5-u14-svn1.cloud.um6p.ma.57601"
"cpu-h23b5-u14-svn1.cloud.um6p.ma.57602"
"cpu-h23b5-u14-svn1.cloud.um6p.ma.57603"
"cpu-h23b5-u14-svn1.cloud.um6p.ma.57604"
"cpu-h23b5-u14-svn1.cloud.um6p.ma.57605"
"cpu-h23b5-u14-svn1.cloud.um6p.ma.57606"
"cpu-h23b5-u14-svn1.cloud.um6p.ma.57607"
"cpu-h23b5-u14-svn1.cloud.um6p.ma.57608"
"cpu-h23b5-u14-svn1.cloud.um6p.ma.57609"
"cpu-h23b5-u14-svn1.cloud.um6p.ma.57610"
"cpu-h23b5-u14-svn1.cloud.um6p.ma.57611"
"cpu-h23b5-u14-svn1.cloud.um6p.ma.57612"
"cpu-h23b5-u14-svn1.cloud.um6p.ma.57613"
"cpu-h23b5-u14-svn1.cloud.um6p.ma.57614"
"cpu-h23b5-u14-svn1.cloud.um6p.ma.57615"
"cpu-h23b5-u14-svn1.cloud.um6p.ma.57616"
"cpu-h23b5-u14-svn1.cloud.um6p.ma.57617"
"cpu-h23b5-u14-svn1.cloud.um6p.ma.57618"
"cpu-h23b5-u14-svn1.cloud.um6p.ma.57619"
"cpu-h23b5-u14-svn1.cloud.um6p.ma.57620"
"cpu-h23b5-u14-svn1.cloud.um6p.ma.57621"
"cpu-h23b5-u14-svn1.cloud.um6p.ma.57622"
"cpu-h23b5-u14-svn1.cloud.um6p.ma.57623"
"cpu-h23b5-u14-svn1.cloud.um6p.ma.57624"
"cpu-h23b5-u14-svn1.cloud.um6p.ma.57625"
"cpu-h23b5-u14-svn1.cloud.um6p.ma.57626"
"cpu-h23b5-u14-svn1.cloud.um6p.ma.57627"
"cpu-h23b5-u14-svn1.cloud.um6p.ma.57628"
"cpu-h23b5-u14-svn1.cloud.um6p.ma.57629"
"cpu-h23b5-u14-svn1.cloud.um6p.ma.57630"
"cpu-h23b5-u14-svn1.cloud.um6p.ma.57631"
"cpu-h23b5-u14-svn1.cloud.um6p.ma.57632"
"cpu-h23b5-u14-svn1.cloud.um6p.ma.57633"
"cpu-h23b5-u14-svn1.cloud.um6p.ma.57634"
"cpu-h23b5-u14-svn1.cloud.um6p.ma.57635"
"cpu-h23b5-u14-svn1.cloud.um6p.ma.57636"
"cpu-h23b5-u14-svn1.cloud.um6p.ma.57637"
"cpu-h23b5-u14-svn1.cloud.um6p.ma.57638"
"cpu-h23b5-u14-svn1.cloud.um6p.ma.57639"
"cpu-h23b5-u14-svn1.cloud.um6p.ma.57640"
"cpu-h23b5-u14-svn1.cloud.um6p.ma.57641"
"cpu-h23b5-u14-svn1.cloud.um6p.ma.57642"
"cpu-h23b5-u14-svn1.cloud.um6p.ma.57643"
"cpu-h23b5-u14-svn1.cloud.um6p.ma.57644"
"cpu-h23b5-u14-svn1.cloud.um6p.ma.57645"
"cpu-h23b5-u14-svn1.cloud.um6p.ma.57646"
"cpu-h23b5-u14-svn1.cloud.um6p.ma.57647"
"cpu-h23b5-u14-svn1.cloud.um6p.ma.57648"
"cpu-h23b5-u14-svn3.cloud.um6p.ma.51698"
"cpu-h23b5-u14-svn3.cloud.um6p.ma.51699"
"cpu-h23b5-u14-svn3.cloud.um6p.ma.51700"
"cpu-h23b5-u14-svn3.cloud.um6p.ma.51701"
"cpu-h23b5-u14-svn3.cloud.um6p.ma.51702"
"cpu-h23b5-u14-svn3.cloud.um6p.ma.51703"
"cpu-h23b5-u14-svn3.cloud.um6p.ma.51704"
"cpu-h23b5-u14-svn3.cloud.um6p.ma.51705"
"cpu-h23b5-u14-svn3.cloud.um6p.ma.51706"
"cpu-h23b5-u14-svn3.cloud.um6p.ma.51707"
"cpu-h23b5-u14-svn3.cloud.um6p.ma.51708"
"cpu-h23b5-u14-svn3.cloud.um6p.ma.51709"
"cpu-h23b5-u14-svn3.cloud.um6p.ma.51710"
"cpu-h23b5-u14-svn3.cloud.um6p.ma.51711"
"cpu-h23b5-u14-svn3.cloud.um6p.ma.51712"
"cpu-h23b5-u14-svn3.cloud.um6p.ma.51713"
"cpu-h23b5-u14-svn3.cloud.um6p.ma.51714"
"cpu-h23b5-u14-svn3.cloud.um6p.ma.51715"
"cpu-h23b5-u14-svn3.cloud.um6p.ma.51716"
"cpu-h23b5-u14-svn3.cloud.um6p.ma.51717"
"cpu-h23b5-u14-svn3.cloud.um6p.ma.51718"
"cpu-h23b5-u14-svn3.cloud.um6p.ma.51719"
"cpu-h23b5-u14-svn3.cloud.um6p.ma.51720"
"cpu-h23b5-u14-svn3.cloud.um6p.ma.51721"
"cpu-h23b5-u14-svn3.cloud.um6p.ma.51722"
"cpu-h23b5-u14-svn3.cloud.um6p.ma.51723"
"cpu-h23b5-u14-svn3.cloud.um6p.ma.51724"
"cpu-h23b5-u14-svn3.cloud.um6p.ma.51725"
"cpu-h23b5-u14-svn3.cloud.um6p.ma.51726"
"cpu-h23b5-u14-svn3.cloud.um6p.ma.51727"
"cpu-h23b5-u14-svn3.cloud.um6p.ma.51728"
"cpu-h23b5-u14-svn3.cloud.um6p.ma.51729"
"cpu-h23b5-u14-svn3.cloud.um6p.ma.51730"
"cpu-h23b5-u14-svn3.cloud.um6p.ma.51731"
"cpu-h23b5-u14-svn3.cloud.um6p.ma.51732"
"cpu-h23b5-u14-svn3.cloud.um6p.ma.51733"
"cpu-h23b5-u14-svn3.cloud.um6p.ma.51734"
"cpu-h23b5-u14-svn3.cloud.um6p.ma.51735"
"cpu-h23b5-u14-svn3.cloud.um6p.ma.51736"
"cpu-h23b5-u14-svn3.cloud.um6p.ma.51737"
"cpu-h23b5-u14-svn3.cloud.um6p.ma.51738"
"cpu-h23b5-u14-svn3.cloud.um6p.ma.51739"
"cpu-h23b5-u14-svn3.cloud.um6p.ma.51740"
"cpu-h23b5-u14-svn3.cloud.um6p.ma.51741"
"cpu-h23b5-u14-svn3.cloud.um6p.ma.51742"
"cpu-h23b5-u14-svn3.cloud.um6p.ma.51743"
"cpu-h23b5-u14-svn3.cloud.um6p.ma.51744"
"cpu-h23b5-u14-svn3.cloud.um6p.ma.51745"
"cpu-h23b5-u14-svn3.cloud.um6p.ma.51746"
"cpu-h23b5-u14-svn3.cloud.um6p.ma.51747"
"cpu-h23b5-u14-svn3.cloud.um6p.ma.51748"
"cpu-h23b5-u14-svn3.cloud.um6p.ma.51749"
"cpu-h23b5-u14-svn3.cloud.um6p.ma.51750"
"cpu-h23b5-u14-svn3.cloud.um6p.ma.51751"
"cpu-h23b5-u14-svn3.cloud.um6p.ma.51752"
"cpu-h23b5-u14-svn3.cloud.um6p.ma.51753"
"cpu-h23b5-u23-svn2.cloud.um6p.ma.51331"
"cpu-h23b5-u23-svn2.cloud.um6p.ma.51332"
"cpu-h23b5-u23-svn2.cloud.um6p.ma.51333"
"cpu-h23b5-u23-svn2.cloud.um6p.ma.51334"
"cpu-h23b5-u23-svn2.cloud.um6p.ma.51335"
"cpu-h23b5-u23-svn2.cloud.um6p.ma.51336"
"cpu-h23b5-u23-svn2.cloud.um6p.ma.51337"
"cpu-h23b5-u23-svn2.cloud.um6p.ma.51338"
"cpu-h23b5-u23-svn2.cloud.um6p.ma.51339"
"cpu-h23b5-u23-svn2.cloud.um6p.ma.51340"
"cpu-h23b5-u23-svn2.cloud.um6p.ma.51341"
"cpu-h23b5-u23-svn2.cloud.um6p.ma.51342"
"cpu-h23b5-u23-svn2.cloud.um6p.ma.51343"
"cpu-h23b5-u23-svn2.cloud.um6p.ma.51344"
"cpu-h23b5-u23-svn2.cloud.um6p.ma.51345"
"cpu-h23b5-u23-svn2.cloud.um6p.ma.51346"
"cpu-h23b5-u23-svn2.cloud.um6p.ma.51347"
"cpu-h23b5-u23-svn2.cloud.um6p.ma.51348"
"cpu-h23b5-u23-svn2.cloud.um6p.ma.51349"
"cpu-h23b5-u23-svn2.cloud.um6p.ma.51350"
"cpu-h23b5-u23-svn2.cloud.um6p.ma.51351"
"cpu-h23b5-u23-svn2.cloud.um6p.ma.51352"
"cpu-h23b5-u23-svn2.cloud.um6p.ma.51353"
"cpu-h23b5-u23-svn2.cloud.um6p.ma.51354"
"cpu-h23b5-u23-svn2.cloud.um6p.ma.51355"
"cpu-h23b5-u23-svn2.cloud.um6p.ma.51356"
"cpu-h23b5-u23-svn2.cloud.um6p.ma.51357"
"cpu-h23b5-u23-svn2.cloud.um6p.ma.51358"
"cpu-h23b5-u23-svn2.cloud.um6p.ma.51359"
"cpu-h23b5-u23-svn2.cloud.um6p.ma.51360"
"cpu-h23b5-u23-svn2.cloud.um6p.ma.51361"
"cpu-h23b5-u23-svn2.cloud.um6p.ma.51362"
"cpu-h23b5-u23-svn2.cloud.um6p.ma.51363"
"cpu-h23b5-u23-svn2.cloud.um6p.ma.51364"
"cpu-h23b5-u23-svn2.cloud.um6p.ma.51365"
"cpu-h23b5-u23-svn2.cloud.um6p.ma.51366"
"cpu-h23b5-u23-svn2.cloud.um6p.ma.51367"
"cpu-h23b5-u23-svn2.cloud.um6p.ma.51368"
"cpu-h23b5-u23-svn2.cloud.um6p.ma.51369"
"cpu-h23b5-u23-svn2.cloud.um6p.ma.51370"
"cpu-h23b5-u23-svn2.cloud.um6p.ma.51371"
"cpu-h23b5-u23-svn2.cloud.um6p.ma.51372"
"cpu-h23b5-u23-svn2.cloud.um6p.ma.51373"
"cpu-h23b5-u23-svn2.cloud.um6p.ma.51374"
"cpu-h23b5-u23-svn2.cloud.um6p.ma.51375"
"cpu-h23b5-u23-svn2.cloud.um6p.ma.51376"
"cpu-h23b5-u23-svn2.cloud.um6p.ma.51377"
"cpu-h23b5-u23-svn2.cloud.um6p.ma.51378"
"cpu-h23b5-u23-svn2.cloud.um6p.ma.51379"
"cpu-h23b5-u23-svn2.cloud.um6p.ma.51380"
"cpu-h23b5-u23-svn2.cloud.um6p.ma.51381"
"cpu-h23b5-u23-svn2.cloud.um6p.ma.51382"
"cpu-h23b5-u23-svn2.cloud.um6p.ma.51383"
"cpu-h23b5-u23-svn2.cloud.um6p.ma.51384"
"cpu-h23b5-u23-svn2.cloud.um6p.ma.51385"
"cpu-h23b5-u23-svn2.cloud.um6p.ma.51386"
"cpu-h23b5-u23-svn4.cloud.um6p.ma.50925"
"cpu-h23b5-u23-svn4.cloud.um6p.ma.50926"
"cpu-h23b5-u23-svn4.cloud.um6p.ma.50927"
"cpu-h23b5-u23-svn4.cloud.um6p.ma.50928"
"cpu-h23b5-u23-svn4.cloud.um6p.ma.50929"
"cpu-h23b5-u23-svn4.cloud.um6p.ma.50930"
"cpu-h23b5-u23-svn4.cloud.um6p.ma.50931"
"cpu-h23b5-u23-svn4.cloud.um6p.ma.50932"
"cpu-h23b5-u23-svn4.cloud.um6p.ma.50933"
"cpu-h23b5-u23-svn4.cloud.um6p.ma.50934"
"cpu-h23b5-u23-svn4.cloud.um6p.ma.50935"
"cpu-h23b5-u23-svn4.cloud.um6p.ma.50936"
"cpu-h23b5-u23-svn4.cloud.um6p.ma.50937"
"cpu-h23b5-u23-svn4.cloud.um6p.ma.50938"
"cpu-h23b5-u23-svn4.cloud.um6p.ma.50939"
"cpu-h23b5-u23-svn4.cloud.um6p.ma.50940"
"cpu-h23b5-u23-svn4.cloud.um6p.ma.50941"
"cpu-h23b5-u23-svn4.cloud.um6p.ma.50942"
"cpu-h23b5-u23-svn4.cloud.um6p.ma.50943"
"cpu-h23b5-u23-svn4.cloud.um6p.ma.50944"
"cpu-h23b5-u23-svn4.cloud.um6p.ma.50945"
"cpu-h23b5-u23-svn4.cloud.um6p.ma.50946"
"cpu-h23b5-u23-svn4.cloud.um6p.ma.50947"
"cpu-h23b5-u23-svn4.cloud.um6p.ma.50948"
"cpu-h23b5-u23-svn4.cloud.um6p.ma.50949"
"cpu-h23b5-u23-svn4.cloud.um6p.ma.50950"
"cpu-h23b5-u23-svn4.cloud.um6p.ma.50951"
"cpu-h23b5-u23-svn4.cloud.um6p.ma.50952"
"cpu-h23b5-u23-svn4.cloud.um6p.ma.50953"
"cpu-h23b5-u23-svn4.cloud.um6p.ma.50954"
"cpu-h23b5-u23-svn4.cloud.um6p.ma.50955"
"cpu-h23b5-u23-svn4.cloud.um6p.ma.50956"
"cpu-h23b5-u23-svn4.cloud.um6p.ma.50957"
"cpu-h23b5-u23-svn4.cloud.um6p.ma.50958"
"cpu-h23b5-u23-svn4.cloud.um6p.ma.50959"
"cpu-h23b5-u23-svn4.cloud.um6p.ma.50960"
"cpu-h23b5-u23-svn4.cloud.um6p.ma.50961"
"cpu-h23b5-u23-svn4.cloud.um6p.ma.50962"
"cpu-h23b5-u23-svn4.cloud.um6p.ma.50963"
"cpu-h23b5-u23-svn4.cloud.um6p.ma.50964"
"cpu-h23b5-u23-svn4.cloud.um6p.ma.50965"
"cpu-h23b5-u23-svn4.cloud.um6p.ma.50966"
"cpu-h23b5-u23-svn4.cloud.um6p.ma.50967"
"cpu-h23b5-u23-svn4.cloud.um6p.ma.50968"
"cpu-h23b5-u23-svn4.cloud.um6p.ma.50969"
"cpu-h23b5-u23-svn4.cloud.um6p.ma.50970"
"cpu-h23b5-u23-svn4.cloud.um6p.ma.50971"
"cpu-h23b5-u23-svn4.cloud.um6p.ma.50972"
"cpu-h23b5-u23-svn4.cloud.um6p.ma.50973"
"cpu-h23b5-u23-svn4.cloud.um6p.ma.50974"
"cpu-h23b5-u23-svn4.cloud.um6p.ma.50975"
"cpu-h23b5-u23-svn4.cloud.um6p.ma.50976"
"cpu-h23b5-u23-svn4.cloud.um6p.ma.50977"
"cpu-h23b5-u23-svn4.cloud.um6p.ma.50978"
"cpu-h23b5-u23-svn4.cloud.um6p.ma.50979"
"cpu-h23b5-u23-svn4.cloud.um6p.ma.50980"
"cpu-h23b5-u24-svn1.cloud.um6p.ma.50967"
"cpu-h23b5-u24-svn1.cloud.um6p.ma.50968"
"cpu-h23b5-u24-svn1.cloud.um6p.ma.50969"
"cpu-h23b5-u24-svn1.cloud.um6p.ma.50970"
"cpu-h23b5-u24-svn1.cloud.um6p.ma.50971"
"cpu-h23b5-u24-svn1.cloud.um6p.ma.50972"
"cpu-h23b5-u24-svn1.cloud.um6p.ma.50973"
"cpu-h23b5-u24-svn1.cloud.um6p.ma.50974"
"cpu-h23b5-u24-svn1.cloud.um6p.ma.50975"
"cpu-h23b5-u24-svn1.cloud.um6p.ma.50976"
"cpu-h23b5-u24-svn1.cloud.um6p.ma.50977"
"cpu-h23b5-u24-svn1.cloud.um6p.ma.50978"
"cpu-h23b5-u24-svn1.cloud.um6p.ma.50979"
"cpu-h23b5-u24-svn1.cloud.um6p.ma.50980"
"cpu-h23b5-u24-svn1.cloud.um6p.ma.50981"
"cpu-h23b5-u24-svn1.cloud.um6p.ma.50982"
"cpu-h23b5-u24-svn1.cloud.um6p.ma.50983"
"cpu-h23b5-u24-svn1.cloud.um6p.ma.50984"
"cpu-h23b5-u24-svn1.cloud.um6p.ma.50985"
"cpu-h23b5-u24-svn1.cloud.um6p.ma.50986"
"cpu-h23b5-u24-svn1.cloud.um6p.ma.50987"
"cpu-h23b5-u24-svn1.cloud.um6p.ma.50988"
"cpu-h23b5-u24-svn1.cloud.um6p.ma.50989"
"cpu-h23b5-u24-svn1.cloud.um6p.ma.50990"
"cpu-h23b5-u24-svn1.cloud.um6p.ma.50991"
"cpu-h23b5-u24-svn1.cloud.um6p.ma.50992"
"cpu-h23b5-u24-svn1.cloud.um6p.ma.50993"
"cpu-h23b5-u24-svn1.cloud.um6p.ma.50994"
"cpu-h23b5-u24-svn1.cloud.um6p.ma.50995"
"cpu-h23b5-u24-svn1.cloud.um6p.ma.50996"
"cpu-h23b5-u24-svn1.cloud.um6p.ma.50997"
"cpu-h23b5-u24-svn1.cloud.um6p.ma.50998"
"cpu-h23b5-u24-svn1.cloud.um6p.ma.50999"
"cpu-h23b5-u24-svn1.cloud.um6p.ma.51000"
"cpu-h23b5-u24-svn1.cloud.um6p.ma.51001"
"cpu-h23b5-u24-svn1.cloud.um6p.ma.51002"
"cpu-h23b5-u24-svn1.cloud.um6p.ma.51003"
"cpu-h23b5-u24-svn1.cloud.um6p.ma.51004"
"cpu-h23b5-u24-svn1.cloud.um6p.ma.51005"
"cpu-h23b5-u24-svn1.cloud.um6p.ma.51006"
"cpu-h23b5-u24-svn1.cloud.um6p.ma.51007"
"cpu-h23b5-u24-svn1.cloud.um6p.ma.51008"
"cpu-h23b5-u24-svn1.cloud.um6p.ma.51009"
"cpu-h23b5-u24-svn1.cloud.um6p.ma.51010"
"cpu-h23b5-u24-svn1.cloud.um6p.ma.51011"
"cpu-h23b5-u24-svn1.cloud.um6p.ma.51012"
"cpu-h23b5-u24-svn1.cloud.um6p.ma.51013"
"cpu-h23b5-u24-svn1.cloud.um6p.ma.51014"
"cpu-h23b5-u24-svn1.cloud.um6p.ma.51015"
"cpu-h23b5-u24-svn1.cloud.um6p.ma.51016"
"cpu-h23b5-u24-svn1.cloud.um6p.ma.51017"
"cpu-h23b5-u24-svn1.cloud.um6p.ma.51018"
"cpu-h23b5-u24-svn1.cloud.um6p.ma.51019"
"cpu-h23b5-u24-svn1.cloud.um6p.ma.51020"
"cpu-h23b5-u24-svn1.cloud.um6p.ma.51021"
"cpu-h23b5-u24-svn1.cloud.um6p.ma.51022"
"cpu-h23b5-u24-svn3.cloud.um6p.ma.50538"
"cpu-h23b5-u24-svn3.cloud.um6p.ma.50539"
"cpu-h23b5-u24-svn3.cloud.um6p.ma.50540"
"cpu-h23b5-u24-svn3.cloud.um6p.ma.50541"
"cpu-h23b5-u24-svn3.cloud.um6p.ma.50542"
"cpu-h23b5-u24-svn3.cloud.um6p.ma.50543"
"cpu-h23b5-u24-svn3.cloud.um6p.ma.50544"
"cpu-h23b5-u24-svn3.cloud.um6p.ma.50545"
"cpu-h23b5-u24-svn3.cloud.um6p.ma.50546"
"cpu-h23b5-u24-svn3.cloud.um6p.ma.50547"
"cpu-h23b5-u24-svn3.cloud.um6p.ma.50548"
"cpu-h23b5-u24-svn3.cloud.um6p.ma.50549"
"cpu-h23b5-u24-svn3.cloud.um6p.ma.50550"
"cpu-h23b5-u24-svn3.cloud.um6p.ma.50551"
"cpu-h23b5-u24-svn3.cloud.um6p.ma.50552"
"cpu-h23b5-u24-svn3.cloud.um6p.ma.50553"
"cpu-h23b5-u24-svn3.cloud.um6p.ma.50554"
"cpu-h23b5-u24-svn3.cloud.um6p.ma.50555"
"cpu-h23b5-u24-svn3.cloud.um6p.ma.50556"
"cpu-h23b5-u24-svn3.cloud.um6p.ma.50557"
"cpu-h23b5-u24-svn3.cloud.um6p.ma.50558"
"cpu-h23b5-u24-svn3.cloud.um6p.ma.50559"
"cpu-h23b5-u24-svn3.cloud.um6p.ma.50560"
"cpu-h23b5-u24-svn3.cloud.um6p.ma.50561"
"cpu-h23b5-u24-svn3.cloud.um6p.ma.50562"
"cpu-h23b5-u24-svn3.cloud.um6p.ma.50563"
"cpu-h23b5-u24-svn3.cloud.um6p.ma.50564"
"cpu-h23b5-u24-svn3.cloud.um6p.ma.50565"
"cpu-h23b5-u24-svn3.cloud.um6p.ma.50566"
"cpu-h23b5-u24-svn3.cloud.um6p.ma.50567"
"cpu-h23b5-u24-svn3.cloud.um6p.ma.50568"
"cpu-h23b5-u24-svn3.cloud.um6p.ma.50569"
"cpu-h23b5-u24-svn3.cloud.um6p.ma.50570"
"cpu-h23b5-u24-svn3.cloud.um6p.ma.50571"
"cpu-h23b5-u24-svn3.cloud.um6p.ma.50572"
"cpu-h23b5-u24-svn3.cloud.um6p.ma.50573"
"cpu-h23b5-u24-svn3.cloud.um6p.ma.50574"
"cpu-h23b5-u24-svn3.cloud.um6p.ma.50575"
"cpu-h23b5-u24-svn3.cloud.um6p.ma.50576"
"cpu-h23b5-u24-svn3.cloud.um6p.ma.50577"
"cpu-h23b5-u24-svn3.cloud.um6p.ma.50578"
"cpu-h23b5-u24-svn3.cloud.um6p.ma.50579"
"cpu-h23b5-u24-svn3.cloud.um6p.ma.50580"
"cpu-h23b5-u24-svn3.cloud.um6p.ma.50581"
"cpu-h23b5-u24-svn3.cloud.um6p.ma.50582"
"cpu-h23b5-u24-svn3.cloud.um6p.ma.50583"
"cpu-h23b5-u24-svn3.cloud.um6p.ma.50584"
"cpu-h23b5-u24-svn3.cloud.um6p.ma.50585"
"cpu-h23b5-u24-svn3.cloud.um6p.ma.50586"
"cpu-h23b5-u24-svn3.cloud.um6p.ma.50587"
"cpu-h23b5-u24-svn3.cloud.um6p.ma.50588"
"cpu-h23b5-u24-svn3.cloud.um6p.ma.50589"
"cpu-h23b5-u24-svn3.cloud.um6p.ma.50590"
"cpu-h23b5-u24-svn3.cloud.um6p.ma.50591"
"cpu-h23b5-u24-svn3.cloud.um6p.ma.50592"
"cpu-h23b5-u24-svn3.cloud.um6p.ma.50593"
"cpu-h23b5-u25-svn2.cloud.um6p.ma.55002"
"cpu-h23b5-u25-svn2.cloud.um6p.ma.55003"
"cpu-h23b5-u25-svn2.cloud.um6p.ma.55004"
"cpu-h23b5-u25-svn2.cloud.um6p.ma.55005"
"cpu-h23b5-u25-svn2.cloud.um6p.ma.55006"
"cpu-h23b5-u25-svn2.cloud.um6p.ma.55007"
"cpu-h23b5-u25-svn2.cloud.um6p.ma.55008"
"cpu-h23b5-u25-svn2.cloud.um6p.ma.55009"
"cpu-h23b5-u25-svn2.cloud.um6p.ma.55010"
"cpu-h23b5-u25-svn2.cloud.um6p.ma.55011"
"cpu-h23b5-u25-svn2.cloud.um6p.ma.55012"
"cpu-h23b5-u25-svn2.cloud.um6p.ma.55013"
"cpu-h23b5-u25-svn2.cloud.um6p.ma.55014"
"cpu-h23b5-u25-svn2.cloud.um6p.ma.55015"
"cpu-h23b5-u25-svn2.cloud.um6p.ma.55016"
"cpu-h23b5-u25-svn2.cloud.um6p.ma.55017"
"cpu-h23b5-u25-svn2.cloud.um6p.ma.55018"
"cpu-h23b5-u25-svn2.cloud.um6p.ma.55019"
"cpu-h23b5-u25-svn2.cloud.um6p.ma.55020"
"cpu-h23b5-u25-svn2.cloud.um6p.ma.55021"
"cpu-h23b5-u25-svn2.cloud.um6p.ma.55022"
"cpu-h23b5-u25-svn2.cloud.um6p.ma.55023"
"cpu-h23b5-u25-svn2.cloud.um6p.ma.55024"
"cpu-h23b5-u25-svn2.cloud.um6p.ma.55025"
"cpu-h23b5-u25-svn2.cloud.um6p.ma.55026"
"cpu-h23b5-u25-svn2.cloud.um6p.ma.55027"
"cpu-h23b5-u25-svn2.cloud.um6p.ma.55028"
"cpu-h23b5-u25-svn2.cloud.um6p.ma.55029"
"cpu-h23b5-u25-svn2.cloud.um6p.ma.55030"
"cpu-h23b5-u25-svn2.cloud.um6p.ma.55031"
"cpu-h23b5-u25-svn2.cloud.um6p.ma.55032"
"cpu-h23b5-u25-svn2.cloud.um6p.ma.55033"
"cpu-h23b5-u25-svn2.cloud.um6p.ma.55034"
"cpu-h23b5-u25-svn2.cloud.um6p.ma.55035"
"cpu-h23b5-u25-svn2.cloud.um6p.ma.55036"
"cpu-h23b5-u25-svn2.cloud.um6p.ma.55037"
"cpu-h23b5-u25-svn2.cloud.um6p.ma.55038"
"cpu-h23b5-u25-svn2.cloud.um6p.ma.55039"
"cpu-h23b5-u25-svn2.cloud.um6p.ma.55040"
"cpu-h23b5-u25-svn2.cloud.um6p.ma.55041"
"cpu-h23b5-u25-svn2.cloud.um6p.ma.55042"
"cpu-h23b5-u25-svn2.cloud.um6p.ma.55043"
"cpu-h23b5-u25-svn2.cloud.um6p.ma.55044"
"cpu-h23b5-u25-svn2.cloud.um6p.ma.55045"
"cpu-h23b5-u25-svn2.cloud.um6p.ma.55046"
"cpu-h23b5-u25-svn2.cloud.um6p.ma.55047"
"cpu-h23b5-u25-svn2.cloud.um6p.ma.55048"
"cpu-h23b5-u25-svn2.cloud.um6p.ma.55049"
"cpu-h23b5-u25-svn2.cloud.um6p.ma.55050"
"cpu-h23b5-u25-svn2.cloud.um6p.ma.55051"
"cpu-h23b5-u25-svn2.cloud.um6p.ma.55052"
"cpu-h23b5-u25-svn2.cloud.um6p.ma.55053"
"cpu-h23b5-u25-svn2.cloud.um6p.ma.55054"
"cpu-h23b5-u25-svn2.cloud.um6p.ma.55055"
"cpu-h23b5-u25-svn2.cloud.um6p.ma.55056"
"cpu-h23b5-u25-svn2.cloud.um6p.ma.55057"
"cpu-h23b5-u25-svn4.cloud.um6p.ma.51321"
"cpu-h23b5-u25-svn4.cloud.um6p.ma.51322"
"cpu-h23b5-u25-svn4.cloud.um6p.ma.51323"
"cpu-h23b5-u25-svn4.cloud.um6p.ma.51324"
"cpu-h23b5-u25-svn4.cloud.um6p.ma.51325"
"cpu-h23b5-u25-svn4.cloud.um6p.ma.51326"
"cpu-h23b5-u25-svn4.cloud.um6p.ma.51327"
"cpu-h23b5-u25-svn4.cloud.um6p.ma.51328"
"cpu-h23b5-u25-svn4.cloud.um6p.ma.51329"
"cpu-h23b5-u25-svn4.cloud.um6p.ma.51330"
"cpu-h23b5-u25-svn4.cloud.um6p.ma.51331"
"cpu-h23b5-u25-svn4.cloud.um6p.ma.51332"
"cpu-h23b5-u25-svn4.cloud.um6p.ma.51333"
"cpu-h23b5-u25-svn4.cloud.um6p.ma.51334"
"cpu-h23b5-u25-svn4.cloud.um6p.ma.51335"
"cpu-h23b5-u25-svn4.cloud.um6p.ma.51336"
"cpu-h23b5-u25-svn4.cloud.um6p.ma.51337"
"cpu-h23b5-u25-svn4.cloud.um6p.ma.51338"
"cpu-h23b5-u25-svn4.cloud.um6p.ma.51339"
"cpu-h23b5-u25-svn4.cloud.um6p.ma.51340"
"cpu-h23b5-u25-svn4.cloud.um6p.ma.51341"
"cpu-h23b5-u25-svn4.cloud.um6p.ma.51342"
"cpu-h23b5-u25-svn4.cloud.um6p.ma.51343"
"cpu-h23b5-u25-svn4.cloud.um6p.ma.51344"
"cpu-h23b5-u25-svn4.cloud.um6p.ma.51345"
"cpu-h23b5-u25-svn4.cloud.um6p.ma.51346"
"cpu-h23b5-u25-svn4.cloud.um6p.ma.51347"
"cpu-h23b5-u25-svn4.cloud.um6p.ma.51348"
"cpu-h23b5-u25-svn4.cloud.um6p.ma.51349"
"cpu-h23b5-u25-svn4.cloud.um6p.ma.51350"
"cpu-h23b5-u25-svn4.cloud.um6p.ma.51351"
"cpu-h23b5-u25-svn4.cloud.um6p.ma.51352"
"cpu-h23b5-u25-svn4.cloud.um6p.ma.51353"
"cpu-h23b5-u25-svn4.cloud.um6p.ma.51354"
"cpu-h23b5-u25-svn4.cloud.um6p.ma.51355"
"cpu-h23b5-u25-svn4.cloud.um6p.ma.51356"
"cpu-h23b5-u25-svn4.cloud.um6p.ma.51357"
"cpu-h23b5-u25-svn4.cloud.um6p.ma.51358"
"cpu-h23b5-u25-svn4.cloud.um6p.ma.51359"
"cpu-h23b5-u25-svn4.cloud.um6p.ma.51360"
"cpu-h23b5-u25-svn4.cloud.um6p.ma.51361"
"cpu-h23b5-u25-svn4.cloud.um6p.ma.51362"
"cpu-h23b5-u25-svn4.cloud.um6p.ma.51363"
"cpu-h23b5-u25-svn4.cloud.um6p.ma.51364"
"cpu-h23b5-u25-svn4.cloud.um6p.ma.51365"
"cpu-h23b5-u25-svn4.cloud.um6p.ma.51366"
"cpu-h23b5-u25-svn4.cloud.um6p.ma.51367"
"cpu-h23b5-u25-svn4.cloud.um6p.ma.51368"
"cpu-h23b5-u25-svn4.cloud.um6p.ma.51369"
"cpu-h23b5-u25-svn4.cloud.um6p.ma.51370"
"cpu-h23b5-u25-svn4.cloud.um6p.ma.51371"
"cpu-h23b5-u25-svn4.cloud.um6p.ma.51372"
"cpu-h23b5-u25-svn4.cloud.um6p.ma.51373"
"cpu-h23b5-u25-svn4.cloud.um6p.ma.51374"
"cpu-h23b5-u25-svn4.cloud.um6p.ma.51375"
"cpu-h23b5-u25-svn4.cloud.um6p.ma.51376"
"cpu-h23b5-u26-svn1.cloud.um6p.ma.49366"
"cpu-h23b5-u26-svn1.cloud.um6p.ma.49367"
"cpu-h23b5-u26-svn1.cloud.um6p.ma.49368"
"cpu-h23b5-u26-svn1.cloud.um6p.ma.49369"
"cpu-h23b5-u26-svn1.cloud.um6p.ma.49370"
"cpu-h23b5-u26-svn1.cloud.um6p.ma.49371"
"cpu-h23b5-u26-svn1.cloud.um6p.ma.49372"
"cpu-h23b5-u26-svn1.cloud.um6p.ma.49373"
"cpu-h23b5-u26-svn1.cloud.um6p.ma.49374"
"cpu-h23b5-u26-svn1.cloud.um6p.ma.49375"
"cpu-h23b5-u26-svn1.cloud.um6p.ma.49376"
"cpu-h23b5-u26-svn1.cloud.um6p.ma.49377"
"cpu-h23b5-u26-svn1.cloud.um6p.ma.49378"
"cpu-h23b5-u26-svn1.cloud.um6p.ma.49379"
"cpu-h23b5-u26-svn1.cloud.um6p.ma.49380"
"cpu-h23b5-u26-svn1.cloud.um6p.ma.49381"
"cpu-h23b5-u26-svn1.cloud.um6p.ma.49382"
"cpu-h23b5-u26-svn1.cloud.um6p.ma.49383"
"cpu-h23b5-u26-svn1.cloud.um6p.ma.49384"
"cpu-h23b5-u26-svn1.cloud.um6p.ma.49385"
"cpu-h23b5-u26-svn1.cloud.um6p.ma.49386"
"cpu-h23b5-u26-svn1.cloud.um6p.ma.49387"
"cpu-h23b5-u26-svn1.cloud.um6p.ma.49388"
"cpu-h23b5-u26-svn1.cloud.um6p.ma.49389"
"cpu-h23b5-u26-svn1.cloud.um6p.ma.49390"
"cpu-h23b5-u26-svn1.cloud.um6p.ma.49391"
"cpu-h23b5-u26-svn1.cloud.um6p.ma.49392"
"cpu-h23b5-u26-svn1.cloud.um6p.ma.49393"
"cpu-h23b5-u26-svn1.cloud.um6p.ma.49394"
"cpu-h23b5-u26-svn1.cloud.um6p.ma.49395"
"cpu-h23b5-u26-svn1.cloud.um6p.ma.49396"
"cpu-h23b5-u26-svn1.cloud.um6p.ma.49397"
"cpu-h23b5-u26-svn1.cloud.um6p.ma.49398"
"cpu-h23b5-u26-svn1.cloud.um6p.ma.49399"
"cpu-h23b5-u26-svn1.cloud.um6p.ma.49400"
"cpu-h23b5-u26-svn1.cloud.um6p.ma.49401"
"cpu-h23b5-u26-svn1.cloud.um6p.ma.49402"
"cpu-h23b5-u26-svn1.cloud.um6p.ma.49403"
"cpu-h23b5-u26-svn1.cloud.um6p.ma.49404"
"cpu-h23b5-u26-svn1.cloud.um6p.ma.49405"
"cpu-h23b5-u26-svn1.cloud.um6p.ma.49406"
"cpu-h23b5-u26-svn1.cloud.um6p.ma.49407"
"cpu-h23b5-u26-svn1.cloud.um6p.ma.49408"
"cpu-h23b5-u26-svn1.cloud.um6p.ma.49409"
"cpu-h23b5-u26-svn1.cloud.um6p.ma.49410"
"cpu-h23b5-u26-svn1.cloud.um6p.ma.49411"
"cpu-h23b5-u26-svn1.cloud.um6p.ma.49412"
"cpu-h23b5-u26-svn1.cloud.um6p.ma.49413"
"cpu-h23b5-u26-svn1.cloud.um6p.ma.49414"
"cpu-h23b5-u26-svn1.cloud.um6p.ma.49415"
"cpu-h23b5-u26-svn1.cloud.um6p.ma.49416"
"cpu-h23b5-u26-svn1.cloud.um6p.ma.49417"
"cpu-h23b5-u26-svn1.cloud.um6p.ma.49418"
"cpu-h23b5-u26-svn1.cloud.um6p.ma.49419"
"cpu-h23b5-u26-svn1.cloud.um6p.ma.49420"
"cpu-h23b5-u26-svn1.cloud.um6p.ma.49421"
"cpu-h23b5-u26-svn3.cloud.um6p.ma.52050"
"cpu-h23b5-u26-svn3.cloud.um6p.ma.52051"
"cpu-h23b5-u26-svn3.cloud.um6p.ma.52052"
"cpu-h23b5-u26-svn3.cloud.um6p.ma.52053"
"cpu-h23b5-u26-svn3.cloud.um6p.ma.52054"
"cpu-h23b5-u26-svn3.cloud.um6p.ma.52055"
"cpu-h23b5-u26-svn3.cloud.um6p.ma.52056"
"cpu-h23b5-u26-svn3.cloud.um6p.ma.52057"
"cpu-h23b5-u26-svn3.cloud.um6p.ma.52058"
"cpu-h23b5-u26-svn3.cloud.um6p.ma.52059"
"cpu-h23b5-u26-svn3.cloud.um6p.ma.52060"
"cpu-h23b5-u26-svn3.cloud.um6p.ma.52061"
"cpu-h23b5-u26-svn3.cloud.um6p.ma.52062"
"cpu-h23b5-u26-svn3.cloud.um6p.ma.52063"
"cpu-h23b5-u26-svn3.cloud.um6p.ma.52064"
"cpu-h23b5-u26-svn3.cloud.um6p.ma.52065"
"cpu-h23b5-u26-svn3.cloud.um6p.ma.52066"
"cpu-h23b5-u26-svn3.cloud.um6p.ma.52067"
"cpu-h23b5-u26-svn3.cloud.um6p.ma.52068"
"cpu-h23b5-u26-svn3.cloud.um6p.ma.52069"
"cpu-h23b5-u26-svn3.cloud.um6p.ma.52070"
"cpu-h23b5-u26-svn3.cloud.um6p.ma.52071"
"cpu-h23b5-u26-svn3.cloud.um6p.ma.52072"
"cpu-h23b5-u26-svn3.cloud.um6p.ma.52073"
"cpu-h23b5-u26-svn3.cloud.um6p.ma.52074"
"cpu-h23b5-u26-svn3.cloud.um6p.ma.52075"
"cpu-h23b5-u26-svn3.cloud.um6p.ma.52076"
"cpu-h23b5-u26-svn3.cloud.um6p.ma.52077"
"cpu-h23b5-u26-svn3.cloud.um6p.ma.52078"
"cpu-h23b5-u26-svn3.cloud.um6p.ma.52079"
"cpu-h23b5-u26-svn3.cloud.um6p.ma.52080"
"cpu-h23b5-u26-svn3.cloud.um6p.ma.52081"
"cpu-h23b5-u26-svn3.cloud.um6p.ma.52082"
"cpu-h23b5-u26-svn3.cloud.um6p.ma.52083"
"cpu-h23b5-u26-svn3.cloud.um6p.ma.52084"
"cpu-h23b5-u26-svn3.cloud.um6p.ma.52085"
"cpu-h23b5-u26-svn3.cloud.um6p.ma.52086"
"cpu-h23b5-u26-svn3.cloud.um6p.ma.52087"
"cpu-h23b5-u26-svn3.cloud.um6p.ma.52088"
"cpu-h23b5-u26-svn3.cloud.um6p.ma.52089"
"cpu-h23b5-u26-svn3.cloud.um6p.ma.52090"
"cpu-h23b5-u26-svn3.cloud.um6p.ma.52091"
"cpu-h23b5-u26-svn3.cloud.um6p.ma.52092"
"cpu-h23b5-u26-svn3.cloud.um6p.ma.52093"
"cpu-h23b5-u26-svn3.cloud.um6p.ma.52094"
"cpu-h23b5-u26-svn3.cloud.um6p.ma.52095"
"cpu-h23b5-u26-svn3.cloud.um6p.ma.52096"
"cpu-h23b5-u26-svn3.cloud.um6p.ma.52097"
"cpu-h23b5-u26-svn3.cloud.um6p.ma.52098"
"cpu-h23b5-u26-svn3.cloud.um6p.ma.52099"
"cpu-h23b5-u26-svn3.cloud.um6p.ma.52100"
"cpu-h23b5-u26-svn3.cloud.um6p.ma.52101"
"cpu-h23b5-u26-svn3.cloud.um6p.ma.52102"
"cpu-h23b5-u26-svn3.cloud.um6p.ma.52103"
"cpu-h23b5-u26-svn3.cloud.um6p.ma.52104"
"cpu-h23b5-u26-svn3.cloud.um6p.ma.52105"
"cpu-h23b5-u27-svn2.cloud.um6p.ma.49490"
"cpu-h23b5-u27-svn2.cloud.um6p.ma.49491"
"cpu-h23b5-u27-svn2.cloud.um6p.ma.49492"
"cpu-h23b5-u27-svn2.cloud.um6p.ma.49493"
"cpu-h23b5-u27-svn2.cloud.um6p.ma.49494"
"cpu-h23b5-u27-svn2.cloud.um6p.ma.49495"
"cpu-h23b5-u27-svn2.cloud.um6p.ma.49496"
"cpu-h23b5-u27-svn2.cloud.um6p.ma.49497"
"cpu-h23b5-u27-svn2.cloud.um6p.ma.49498"
"cpu-h23b5-u27-svn2.cloud.um6p.ma.49499"
"cpu-h23b5-u27-svn2.cloud.um6p.ma.49500"
"cpu-h23b5-u27-svn2.cloud.um6p.ma.49501"
"cpu-h23b5-u27-svn2.cloud.um6p.ma.49502"
"cpu-h23b5-u27-svn2.cloud.um6p.ma.49503"
"cpu-h23b5-u27-svn2.cloud.um6p.ma.49504"
"cpu-h23b5-u27-svn2.cloud.um6p.ma.49505"
"cpu-h23b5-u27-svn2.cloud.um6p.ma.49506"
"cpu-h23b5-u27-svn2.cloud.um6p.ma.49507"
"cpu-h23b5-u27-svn2.cloud.um6p.ma.49508"
"cpu-h23b5-u27-svn2.cloud.um6p.ma.49509"
"cpu-h23b5-u27-svn2.cloud.um6p.ma.49510"
"cpu-h23b5-u27-svn2.cloud.um6p.ma.49511"
"cpu-h23b5-u27-svn2.cloud.um6p.ma.49512"
"cpu-h23b5-u27-svn2.cloud.um6p.ma.49513"
"cpu-h23b5-u27-svn2.cloud.um6p.ma.49514"
"cpu-h23b5-u27-svn2.cloud.um6p.ma.49515"
"cpu-h23b5-u27-svn2.cloud.um6p.ma.49516"
"cpu-h23b5-u27-svn2.cloud.um6p.ma.49517"
"cpu-h23b5-u27-svn2.cloud.um6p.ma.49518"
"cpu-h23b5-u27-svn2.cloud.um6p.ma.49519"
"cpu-h23b5-u27-svn2.cloud.um6p.ma.49520"
"cpu-h23b5-u27-svn2.cloud.um6p.ma.49521"
"cpu-h23b5-u27-svn2.cloud.um6p.ma.49522"
"cpu-h23b5-u27-svn2.cloud.um6p.ma.49523"
"cpu-h23b5-u27-svn2.cloud.um6p.ma.49524"
"cpu-h23b5-u27-svn2.cloud.um6p.ma.49525"
"cpu-h23b5-u27-svn2.cloud.um6p.ma.49526"
"cpu-h23b5-u27-svn2.cloud.um6p.ma.49527"
"cpu-h23b5-u27-svn2.cloud.um6p.ma.49528"
"cpu-h23b5-u27-svn2.cloud.um6p.ma.49529"
"cpu-h23b5-u27-svn2.cloud.um6p.ma.49530"
"cpu-h23b5-u27-svn2.cloud.um6p.ma.49531"
"cpu-h23b5-u27-svn2.cloud.um6p.ma.49532"
"cpu-h23b5-u27-svn2.cloud.um6p.ma.49533"
"cpu-h23b5-u27-svn2.cloud.um6p.ma.49534"
"cpu-h23b5-u27-svn2.cloud.um6p.ma.49535"
"cpu-h23b5-u27-svn2.cloud.um6p.ma.49536"
"cpu-h23b5-u27-svn2.cloud.um6p.ma.49537"
"cpu-h23b5-u27-svn2.cloud.um6p.ma.49538"
"cpu-h23b5-u27-svn2.cloud.um6p.ma.49539"
"cpu-h23b5-u27-svn2.cloud.um6p.ma.49540"
"cpu-h23b5-u27-svn2.cloud.um6p.ma.49541"
"cpu-h23b5-u27-svn2.cloud.um6p.ma.49542"
"cpu-h23b5-u27-svn2.cloud.um6p.ma.49543"
"cpu-h23b5-u27-svn2.cloud.um6p.ma.49544"
"cpu-h23b5-u27-svn2.cloud.um6p.ma.49545"
"cpu-h23b5-u27-svn4.cloud.um6p.ma.53014"
"cpu-h23b5-u27-svn4.cloud.um6p.ma.53015"
"cpu-h23b5-u27-svn4.cloud.um6p.ma.53016"
"cpu-h23b5-u27-svn4.cloud.um6p.ma.53017"
"cpu-h23b5-u27-svn4.cloud.um6p.ma.53018"
"cpu-h23b5-u27-svn4.cloud.um6p.ma.53019"
"cpu-h23b5-u27-svn4.cloud.um6p.ma.53020"
"cpu-h23b5-u27-svn4.cloud.um6p.ma.53021"
"cpu-h23b5-u27-svn4.cloud.um6p.ma.53022"
"cpu-h23b5-u27-svn4.cloud.um6p.ma.53023"
"cpu-h23b5-u27-svn4.cloud.um6p.ma.53024"
"cpu-h23b5-u27-svn4.cloud.um6p.ma.53025"
"cpu-h23b5-u27-svn4.cloud.um6p.ma.53026"
"cpu-h23b5-u27-svn4.cloud.um6p.ma.53027"
"cpu-h23b5-u27-svn4.cloud.um6p.ma.53028"
"cpu-h23b5-u27-svn4.cloud.um6p.ma.53029"
"cpu-h23b5-u27-svn4.cloud.um6p.ma.53030"
"cpu-h23b5-u27-svn4.cloud.um6p.ma.53031"
"cpu-h23b5-u27-svn4.cloud.um6p.ma.53032"
"cpu-h23b5-u27-svn4.cloud.um6p.ma.53033"
"cpu-h23b5-u27-svn4.cloud.um6p.ma.53034"
"cpu-h23b5-u27-svn4.cloud.um6p.ma.53035"
"cpu-h23b5-u27-svn4.cloud.um6p.ma.53036"
"cpu-h23b5-u27-svn4.cloud.um6p.ma.53037"
"cpu-h23b5-u27-svn4.cloud.um6p.ma.53038"
"cpu-h23b5-u27-svn4.cloud.um6p.ma.53039"
"cpu-h23b5-u27-svn4.cloud.um6p.ma.53040"
"cpu-h23b5-u27-svn4.cloud.um6p.ma.53041"
"cpu-h23b5-u27-svn4.cloud.um6p.ma.53042"
"cpu-h23b5-u27-svn4.cloud.um6p.ma.53043"
"cpu-h23b5-u27-svn4.cloud.um6p.ma.53044"
"cpu-h23b5-u27-svn4.cloud.um6p.ma.53045"
"cpu-h23b5-u27-svn4.cloud.um6p.ma.53046"
"cpu-h23b5-u27-svn4.cloud.um6p.ma.53047"
"cpu-h23b5-u27-svn4.cloud.um6p.ma.53048"
"cpu-h23b5-u27-svn4.cloud.um6p.ma.53049"
"cpu-h23b5-u27-svn4.cloud.um6p.ma.53050"
"cpu-h23b5-u27-svn4.cloud.um6p.ma.53051"
"cpu-h23b5-u27-svn4.cloud.um6p.ma.53052"
"cpu-h23b5-u27-svn4.cloud.um6p.ma.53053"
"cpu-h23b5-u27-svn4.cloud.um6p.ma.53054"
"cpu-h23b5-u27-svn4.cloud.um6p.ma.53055"
"cpu-h23b5-u27-svn4.cloud.um6p.ma.53056"
"cpu-h23b5-u27-svn4.cloud.um6p.ma.53057"
"cpu-h23b5-u27-svn4.cloud.um6p.ma.53058"
"cpu-h23b5-u27-svn4.cloud.um6p.ma.53059"
"cpu-h23b5-u27-svn4.cloud.um6p.ma.53060"
"cpu-h23b5-u27-svn4.cloud.um6p.ma.53061"
"cpu-h23b5-u27-svn4.cloud.um6p.ma.53062"
"cpu-h23b5-u27-svn4.cloud.um6p.ma.53063"
"cpu-h23b5-u27-svn4.cloud.um6p.ma.53064"
"cpu-h23b5-u27-svn4.cloud.um6p.ma.53065"
"cpu-h23b5-u27-svn4.cloud.um6p.ma.53066"
"cpu-h23b5-u27-svn4.cloud.um6p.ma.53067"
"cpu-h23b5-u27-svn4.cloud.um6p.ma.53068"
"cpu-h23b5-u27-svn4.cloud.um6p.ma.53069"
"cpu-h23b5-u28-svn1.cloud.um6p.ma.50222"
"cpu-h23b5-u28-svn1.cloud.um6p.ma.50223"
"cpu-h23b5-u28-svn1.cloud.um6p.ma.50224"
"cpu-h23b5-u28-svn1.cloud.um6p.ma.50225"
"cpu-h23b5-u28-svn1.cloud.um6p.ma.50226"
"cpu-h23b5-u28-svn1.cloud.um6p.ma.50227"
"cpu-h23b5-u28-svn1.cloud.um6p.ma.50228"
"cpu-h23b5-u28-svn1.cloud.um6p.ma.50229"
"cpu-h23b5-u28-svn1.cloud.um6p.ma.50230"
"cpu-h23b5-u28-svn1.cloud.um6p.ma.50231"
"cpu-h23b5-u28-svn1.cloud.um6p.ma.50232"
"cpu-h23b5-u28-svn1.cloud.um6p.ma.50233"
"cpu-h23b5-u28-svn1.cloud.um6p.ma.50234"
"cpu-h23b5-u28-svn1.cloud.um6p.ma.50235"
"cpu-h23b5-u28-svn1.cloud.um6p.ma.50236"
"cpu-h23b5-u28-svn1.cloud.um6p.ma.50237"
"cpu-h23b5-u28-svn1.cloud.um6p.ma.50238"
"cpu-h23b5-u28-svn1.cloud.um6p.ma.50239"
"cpu-h23b5-u28-svn1.cloud.um6p.ma.50240"
"cpu-h23b5-u28-svn1.cloud.um6p.ma.50241"
"cpu-h23b5-u28-svn1.cloud.um6p.ma.50242"
"cpu-h23b5-u28-svn1.cloud.um6p.ma.50243"
"cpu-h23b5-u28-svn1.cloud.um6p.ma.50244"
"cpu-h23b5-u28-svn1.cloud.um6p.ma.50245"
"cpu-h23b5-u28-svn1.cloud.um6p.ma.50246"
"cpu-h23b5-u28-svn1.cloud.um6p.ma.50247"
"cpu-h23b5-u28-svn1.cloud.um6p.ma.50248"
"cpu-h23b5-u28-svn1.cloud.um6p.ma.50249"
"cpu-h23b5-u28-svn1.cloud.um6p.ma.50250"
"cpu-h23b5-u28-svn1.cloud.um6p.ma.50251"
"cpu-h23b5-u28-svn1.cloud.um6p.ma.50252"
"cpu-h23b5-u28-svn1.cloud.um6p.ma.50253"
"cpu-h23b5-u28-svn1.cloud.um6p.ma.50254"
"cpu-h23b5-u28-svn1.cloud.um6p.ma.50255"
"cpu-h23b5-u28-svn1.cloud.um6p.ma.50256"
"cpu-h23b5-u28-svn1.cloud.um6p.ma.50257"
"cpu-h23b5-u28-svn1.cloud.um6p.ma.50258"
"cpu-h23b5-u28-svn1.cloud.um6p.ma.50259"
"cpu-h23b5-u28-svn1.cloud.um6p.ma.50260"
"cpu-h23b5-u28-svn1.cloud.um6p.ma.50261"
"cpu-h23b5-u28-svn1.cloud.um6p.ma.50262"
"cpu-h23b5-u28-svn1.cloud.um6p.ma.50263"
"cpu-h23b5-u28-svn1.cloud.um6p.ma.50264"
"cpu-h23b5-u28-svn1.cloud.um6p.ma.50265"
"cpu-h23b5-u28-svn1.cloud.um6p.ma.50266"
"cpu-h23b5-u28-svn1.cloud.um6p.ma.50267"
"cpu-h23b5-u28-svn1.cloud.um6p.ma.50268"
"cpu-h23b5-u28-svn1.cloud.um6p.ma.50269"
"cpu-h23b5-u28-svn1.cloud.um6p.ma.50270"
"cpu-h23b5-u28-svn1.cloud.um6p.ma.50271"
"cpu-h23b5-u28-svn1.cloud.um6p.ma.50272"
"cpu-h23b5-u28-svn1.cloud.um6p.ma.50273"
"cpu-h23b5-u28-svn1.cloud.um6p.ma.50274"
"cpu-h23b5-u28-svn1.cloud.um6p.ma.50275"
"cpu-h23b5-u28-svn1.cloud.um6p.ma.50276"
"cpu-h23b5-u28-svn1.cloud.um6p.ma.50277"
"cpu-h23b5-u28-svn3.cloud.um6p.ma.53754"
"cpu-h23b5-u28-svn3.cloud.um6p.ma.53755"
"cpu-h23b5-u28-svn3.cloud.um6p.ma.53756"
"cpu-h23b5-u28-svn3.cloud.um6p.ma.53757"
"cpu-h23b5-u28-svn3.cloud.um6p.ma.53758"
"cpu-h23b5-u28-svn3.cloud.um6p.ma.53759"
"cpu-h23b5-u28-svn3.cloud.um6p.ma.53760"
"cpu-h23b5-u28-svn3.cloud.um6p.ma.53761"
"cpu-h23b5-u28-svn3.cloud.um6p.ma.53762"
"cpu-h23b5-u28-svn3.cloud.um6p.ma.53763"
"cpu-h23b5-u28-svn3.cloud.um6p.ma.53764"
"cpu-h23b5-u28-svn3.cloud.um6p.ma.53765"
"cpu-h23b5-u28-svn3.cloud.um6p.ma.53766"
"cpu-h23b5-u28-svn3.cloud.um6p.ma.53767"
"cpu-h23b5-u28-svn3.cloud.um6p.ma.53768"
"cpu-h23b5-u28-svn3.cloud.um6p.ma.53769"
"cpu-h23b5-u28-svn3.cloud.um6p.ma.53770"
"cpu-h23b5-u28-svn3.cloud.um6p.ma.53771"
"cpu-h23b5-u28-svn3.cloud.um6p.ma.53772"
"cpu-h23b5-u28-svn3.cloud.um6p.ma.53773"
"cpu-h23b5-u28-svn3.cloud.um6p.ma.53774"
"cpu-h23b5-u28-svn3.cloud.um6p.ma.53775"
"cpu-h23b5-u28-svn3.cloud.um6p.ma.53776"
"cpu-h23b5-u28-svn3.cloud.um6p.ma.53777"
"cpu-h23b5-u28-svn3.cloud.um6p.ma.53778"
"cpu-h23b5-u28-svn3.cloud.um6p.ma.53779"
"cpu-h23b5-u28-svn3.cloud.um6p.ma.53780"
"cpu-h23b5-u28-svn3.cloud.um6p.ma.53781"
"cpu-h23b5-u28-svn3.cloud.um6p.ma.53782"
"cpu-h23b5-u28-svn3.cloud.um6p.ma.53783"
"cpu-h23b5-u28-svn3.cloud.um6p.ma.53784"
"cpu-h23b5-u28-svn3.cloud.um6p.ma.53785"
"cpu-h23b5-u28-svn3.cloud.um6p.ma.53786"
"cpu-h23b5-u28-svn3.cloud.um6p.ma.53787"
"cpu-h23b5-u28-svn3.cloud.um6p.ma.53788"
"cpu-h23b5-u28-svn3.cloud.um6p.ma.53789"
"cpu-h23b5-u28-svn3.cloud.um6p.ma.53790"
"cpu-h23b5-u28-svn3.cloud.um6p.ma.53791"
"cpu-h23b5-u28-svn3.cloud.um6p.ma.53792"
"cpu-h23b5-u28-svn3.cloud.um6p.ma.53793"
"cpu-h23b5-u28-svn3.cloud.um6p.ma.53794"
"cpu-h23b5-u28-svn3.cloud.um6p.ma.53795"
"cpu-h23b5-u28-svn3.cloud.um6p.ma.53796"
"cpu-h23b5-u28-svn3.cloud.um6p.ma.53797"
"cpu-h23b5-u28-svn3.cloud.um6p.ma.53798"
"cpu-h23b5-u28-svn3.cloud.um6p.ma.53799"
"cpu-h23b5-u28-svn3.cloud.um6p.ma.53800"
"cpu-h23b5-u28-svn3.cloud.um6p.ma.53801"
"cpu-h23b5-u28-svn3.cloud.um6p.ma.53802"
"cpu-h23b5-u28-svn3.cloud.um6p.ma.53803"
"cpu-h23b5-u28-svn3.cloud.um6p.ma.53804"
"cpu-h23b5-u28-svn3.cloud.um6p.ma.53805"
"cpu-h23b5-u28-svn3.cloud.um6p.ma.53806"
"cpu-h23b5-u28-svn3.cloud.um6p.ma.53807"
"cpu-h23b5-u28-svn3.cloud.um6p.ma.53808"
"cpu-h23b5-u28-svn3.cloud.um6p.ma.53809"
"cpu-h23b5-u29-svn2.cloud.um6p.ma.52813"
"cpu-h23b5-u29-svn2.cloud.um6p.ma.52814"
"cpu-h23b5-u29-svn2.cloud.um6p.ma.52815"
"cpu-h23b5-u29-svn2.cloud.um6p.ma.52816"
"cpu-h23b5-u29-svn2.cloud.um6p.ma.52817"
"cpu-h23b5-u29-svn2.cloud.um6p.ma.52818"
"cpu-h23b5-u29-svn2.cloud.um6p.ma.52819"
"cpu-h23b5-u29-svn2.cloud.um6p.ma.52820"
"cpu-h23b5-u29-svn2.cloud.um6p.ma.52821"
"cpu-h23b5-u29-svn2.cloud.um6p.ma.52822"
"cpu-h23b5-u29-svn2.cloud.um6p.ma.52823"
"cpu-h23b5-u29-svn2.cloud.um6p.ma.52824"
"cpu-h23b5-u29-svn2.cloud.um6p.ma.52825"
"cpu-h23b5-u29-svn2.cloud.um6p.ma.52826"
"cpu-h23b5-u29-svn2.cloud.um6p.ma.52827"
"cpu-h23b5-u29-svn2.cloud.um6p.ma.52828"
"cpu-h23b5-u29-svn2.cloud.um6p.ma.52829"
"cpu-h23b5-u29-svn2.cloud.um6p.ma.52830"
"cpu-h23b5-u29-svn2.cloud.um6p.ma.52831"
"cpu-h23b5-u29-svn2.cloud.um6p.ma.52832"
"cpu-h23b5-u29-svn2.cloud.um6p.ma.52833"
"cpu-h23b5-u29-svn2.cloud.um6p.ma.52834"
"cpu-h23b5-u29-svn2.cloud.um6p.ma.52835"
"cpu-h23b5-u29-svn2.cloud.um6p.ma.52836"
"cpu-h23b5-u29-svn2.cloud.um6p.ma.52837"
"cpu-h23b5-u29-svn2.cloud.um6p.ma.52838"
"cpu-h23b5-u29-svn2.cloud.um6p.ma.52839"
"cpu-h23b5-u29-svn2.cloud.um6p.ma.52840"
"cpu-h23b5-u29-svn2.cloud.um6p.ma.52841"
"cpu-h23b5-u29-svn2.cloud.um6p.ma.52842"
"cpu-h23b5-u29-svn2.cloud.um6p.ma.52843"
"cpu-h23b5-u29-svn2.cloud.um6p.ma.52844"
"cpu-h23b5-u29-svn2.cloud.um6p.ma.52845"
"cpu-h23b5-u29-svn2.cloud.um6p.ma.52846"
"cpu-h23b5-u29-svn2.cloud.um6p.ma.52847"
"cpu-h23b5-u29-svn2.cloud.um6p.ma.52848"
"cpu-h23b5-u29-svn2.cloud.um6p.ma.52849"
"cpu-h23b5-u29-svn2.cloud.um6p.ma.52850"
"cpu-h23b5-u29-svn2.cloud.um6p.ma.52851"
"cpu-h23b5-u29-svn2.cloud.um6p.ma.52852"
"cpu-h23b5-u29-svn2.cloud.um6p.ma.52853"
"cpu-h23b5-u29-svn2.cloud.um6p.ma.52854"
"cpu-h23b5-u29-svn2.cloud.um6p.ma.52855"
"cpu-h23b5-u29-svn2.cloud.um6p.ma.52856"
"cpu-h23b5-u29-svn2.cloud.um6p.ma.52857"
"cpu-h23b5-u29-svn2.cloud.um6p.ma.52858"
"cpu-h23b5-u29-svn2.cloud.um6p.ma.52859"
"cpu-h23b5-u29-svn2.cloud.um6p.ma.52860"
"cpu-h23b5-u29-svn2.cloud.um6p.ma.52861"
"cpu-h23b5-u29-svn2.cloud.um6p.ma.52862"
"cpu-h23b5-u29-svn2.cloud.um6p.ma.52863"
"cpu-h23b5-u29-svn2.cloud.um6p.ma.52864"
"cpu-h23b5-u29-svn2.cloud.um6p.ma.52865"
"cpu-h23b5-u29-svn2.cloud.um6p.ma.52866"
"cpu-h23b5-u29-svn2.cloud.um6p.ma.52867"
"cpu-h23b5-u29-svn2.cloud.um6p.ma.52868"
"cpu-h23b5-u29-svn4.cloud.um6p.ma.53391"
"cpu-h23b5-u29-svn4.cloud.um6p.ma.53392"
"cpu-h23b5-u29-svn4.cloud.um6p.ma.53393"
"cpu-h23b5-u29-svn4.cloud.um6p.ma.53394"
"cpu-h23b5-u29-svn4.cloud.um6p.ma.53395"
"cpu-h23b5-u29-svn4.cloud.um6p.ma.53396"
"cpu-h23b5-u29-svn4.cloud.um6p.ma.53397"
"cpu-h23b5-u29-svn4.cloud.um6p.ma.53398"
"cpu-h23b5-u29-svn4.cloud.um6p.ma.53399"
"cpu-h23b5-u29-svn4.cloud.um6p.ma.53400"
"cpu-h23b5-u29-svn4.cloud.um6p.ma.53401"
"cpu-h23b5-u29-svn4.cloud.um6p.ma.53402"
"cpu-h23b5-u29-svn4.cloud.um6p.ma.53403"
"cpu-h23b5-u29-svn4.cloud.um6p.ma.53404"
"cpu-h23b5-u29-svn4.cloud.um6p.ma.53405"
"cpu-h23b5-u29-svn4.cloud.um6p.ma.53406"
"cpu-h23b5-u29-svn4.cloud.um6p.ma.53407"
"cpu-h23b5-u29-svn4.cloud.um6p.ma.53408"
"cpu-h23b5-u29-svn4.cloud.um6p.ma.53409"
"cpu-h23b5-u29-svn4.cloud.um6p.ma.53410"
"cpu-h23b5-u29-svn4.cloud.um6p.ma.53411"
"cpu-h23b5-u29-svn4.cloud.um6p.ma.53412"
"cpu-h23b5-u29-svn4.cloud.um6p.ma.53413"
"cpu-h23b5-u29-svn4.cloud.um6p.ma.53414"
"cpu-h23b5-u29-svn4.cloud.um6p.ma.53415"
"cpu-h23b5-u29-svn4.cloud.um6p.ma.53416"
"cpu-h23b5-u29-svn4.cloud.um6p.ma.53417"
"cpu-h23b5-u29-svn4.cloud.um6p.ma.53418"
"cpu-h23b5-u29-svn4.cloud.um6p.ma.53419"
"cpu-h23b5-u29-svn4.cloud.um6p.ma.53420"
"cpu-h23b5-u29-svn4.cloud.um6p.ma.53421"
"cpu-h23b5-u29-svn4.cloud.um6p.ma.53422"
"cpu-h23b5-u29-svn4.cloud.um6p.ma.53423"
"cpu-h23b5-u29-svn4.cloud.um6p.ma.53424"
"cpu-h23b5-u29-svn4.cloud.um6p.ma.53425"
"cpu-h23b5-u29-svn4.cloud.um6p.ma.53426"
"cpu-h23b5-u29-svn4.cloud.um6p.ma.53427"
"cpu-h23b5-u29-svn4.cloud.um6p.ma.53428"
"cpu-h23b5-u29-svn4.cloud.um6p.ma.53429"
"cpu-h23b5-u29-svn4.cloud.um6p.ma.53430"
"cpu-h23b5-u29-svn4.cloud.um6p.ma.53431"
"cpu-h23b5-u29-svn4.cloud.um6p.ma.53432"
"cpu-h23b5-u29-svn4.cloud.um6p.ma.53433"
"cpu-h23b5-u29-svn4.cloud.um6p.ma.53434"
"cpu-h23b5-u29-svn4.cloud.um6p.ma.53435"
"cpu-h23b5-u29-svn4.cloud.um6p.ma.53436"
"cpu-h23b5-u29-svn4.cloud.um6p.ma.53437"
"cpu-h23b5-u29-svn4.cloud.um6p.ma.53438"
"cpu-h23b5-u29-svn4.cloud.um6p.ma.53439"
"cpu-h23b5-u29-svn4.cloud.um6p.ma.53440"
"cpu-h23b5-u29-svn4.cloud.um6p.ma.53441"
"cpu-h23b5-u29-svn4.cloud.um6p.ma.53442"
"cpu-h23b5-u29-svn4.cloud.um6p.ma.53443"
"cpu-h23b5-u29-svn4.cloud.um6p.ma.53444"
"cpu-h23b5-u29-svn4.cloud.um6p.ma.53445"
"cpu-h23b5-u29-svn4.cloud.um6p.ma.53446"
"cpu-h23b5-u30-svn1.cloud.um6p.ma.52704"
"cpu-h23b5-u30-svn1.cloud.um6p.ma.52705"
"cpu-h23b5-u30-svn1.cloud.um6p.ma.52706"
"cpu-h23b5-u30-svn1.cloud.um6p.ma.52707"
"cpu-h23b5-u30-svn1.cloud.um6p.ma.52708"
"cpu-h23b5-u30-svn1.cloud.um6p.ma.52709"
"cpu-h23b5-u30-svn1.cloud.um6p.ma.52710"
"cpu-h23b5-u30-svn1.cloud.um6p.ma.52711"
"cpu-h23b5-u30-svn1.cloud.um6p.ma.52712"
"cpu-h23b5-u30-svn1.cloud.um6p.ma.52713"
"cpu-h23b5-u30-svn1.cloud.um6p.ma.52714"
"cpu-h23b5-u30-svn1.cloud.um6p.ma.52715"
"cpu-h23b5-u30-svn1.cloud.um6p.ma.52716"
"cpu-h23b5-u30-svn1.cloud.um6p.ma.52717"
"cpu-h23b5-u30-svn1.cloud.um6p.ma.52718"
"cpu-h23b5-u30-svn1.cloud.um6p.ma.52719"
"cpu-h23b5-u30-svn1.cloud.um6p.ma.52720"
"cpu-h23b5-u30-svn1.cloud.um6p.ma.52721"
"cpu-h23b5-u30-svn1.cloud.um6p.ma.52722"
"cpu-h23b5-u30-svn1.cloud.um6p.ma.52723"
"cpu-h23b5-u30-svn1.cloud.um6p.ma.52724"
"cpu-h23b5-u30-svn1.cloud.um6p.ma.52725"
"cpu-h23b5-u30-svn1.cloud.um6p.ma.52726"
"cpu-h23b5-u30-svn1.cloud.um6p.ma.52727"
"cpu-h23b5-u30-svn1.cloud.um6p.ma.52728"
"cpu-h23b5-u30-svn1.cloud.um6p.ma.52729"
"cpu-h23b5-u30-svn1.cloud.um6p.ma.52730"
"cpu-h23b5-u30-svn1.cloud.um6p.ma.52731"
"cpu-h23b5-u30-svn1.cloud.um6p.ma.52732"
"cpu-h23b5-u30-svn1.cloud.um6p.ma.52733"
"cpu-h23b5-u30-svn1.cloud.um6p.ma.52734"
"cpu-h23b5-u30-svn1.cloud.um6p.ma.52735"
"cpu-h23b5-u30-svn1.cloud.um6p.ma.52736"
"cpu-h23b5-u30-svn1.cloud.um6p.ma.52737"
"cpu-h23b5-u30-svn1.cloud.um6p.ma.52738"
"cpu-h23b5-u30-svn1.cloud.um6p.ma.52739"
"cpu-h23b5-u30-svn1.cloud.um6p.ma.52740"
"cpu-h23b5-u30-svn1.cloud.um6p.ma.52741"
"cpu-h23b5-u30-svn1.cloud.um6p.ma.52742"
"cpu-h23b5-u30-svn1.cloud.um6p.ma.52743"
"cpu-h23b5-u30-svn1.cloud.um6p.ma.52744"
"cpu-h23b5-u30-svn1.cloud.um6p.ma.52745"
"cpu-h23b5-u30-svn1.cloud.um6p.ma.52746"
"cpu-h23b5-u30-svn1.cloud.um6p.ma.52747"
"cpu-h23b5-u30-svn1.cloud.um6p.ma.52748"
"cpu-h23b5-u30-svn1.cloud.um6p.ma.52749"
"cpu-h23b5-u30-svn1.cloud.um6p.ma.52750"
"cpu-h23b5-u30-svn1.cloud.um6p.ma.52751"
"cpu-h23b5-u30-svn1.cloud.um6p.ma.52752"
"cpu-h23b5-u30-svn1.cloud.um6p.ma.52753"
"cpu-h23b5-u30-svn1.cloud.um6p.ma.52754"
"cpu-h23b5-u30-svn1.cloud.um6p.ma.52755"
"cpu-h23b5-u30-svn1.cloud.um6p.ma.52756"
"cpu-h23b5-u30-svn1.cloud.um6p.ma.52757"
"cpu-h23b5-u30-svn1.cloud.um6p.ma.52758"
"cpu-h23b5-u30-svn1.cloud.um6p.ma.52759"
"cpu-h23b5-u30-svn3.cloud.um6p.ma.53248"
"cpu-h23b5-u30-svn3.cloud.um6p.ma.53249"
"cpu-h23b5-u30-svn3.cloud.um6p.ma.53250"
"cpu-h23b5-u30-svn3.cloud.um6p.ma.53251"
"cpu-h23b5-u30-svn3.cloud.um6p.ma.53252"
"cpu-h23b5-u30-svn3.cloud.um6p.ma.53253"
"cpu-h23b5-u30-svn3.cloud.um6p.ma.53254"
"cpu-h23b5-u30-svn3.cloud.um6p.ma.53255"
"cpu-h23b5-u30-svn3.cloud.um6p.ma.53256"
"cpu-h23b5-u30-svn3.cloud.um6p.ma.53257"
"cpu-h23b5-u30-svn3.cloud.um6p.ma.53258"
"cpu-h23b5-u30-svn3.cloud.um6p.ma.53259"
"cpu-h23b5-u30-svn3.cloud.um6p.ma.53260"
"cpu-h23b5-u30-svn3.cloud.um6p.ma.53261"
"cpu-h23b5-u30-svn3.cloud.um6p.ma.53262"
"cpu-h23b5-u30-svn3.cloud.um6p.ma.53263"
"cpu-h23b5-u30-svn3.cloud.um6p.ma.53264"
"cpu-h23b5-u30-svn3.cloud.um6p.ma.53265"
"cpu-h23b5-u30-svn3.cloud.um6p.ma.53266"
"cpu-h23b5-u30-svn3.cloud.um6p.ma.53267"
"cpu-h23b5-u30-svn3.cloud.um6p.ma.53268"
"cpu-h23b5-u30-svn3.cloud.um6p.ma.53269"
"cpu-h23b5-u30-svn3.cloud.um6p.ma.53270"
"cpu-h23b5-u30-svn3.cloud.um6p.ma.53271"
"cpu-h23b5-u30-svn3.cloud.um6p.ma.53272"
"cpu-h23b5-u30-svn3.cloud.um6p.ma.53273"
"cpu-h23b5-u30-svn3.cloud.um6p.ma.53274"
"cpu-h23b5-u30-svn3.cloud.um6p.ma.53275"
"cpu-h23b5-u30-svn3.cloud.um6p.ma.53276"
"cpu-h23b5-u30-svn3.cloud.um6p.ma.53277"
"cpu-h23b5-u30-svn3.cloud.um6p.ma.53278"
"cpu-h23b5-u30-svn3.cloud.um6p.ma.53279"
"cpu-h23b5-u30-svn3.cloud.um6p.ma.53280"
"cpu-h23b5-u30-svn3.cloud.um6p.ma.53281"
"cpu-h23b5-u30-svn3.cloud.um6p.ma.53282"
"cpu-h23b5-u30-svn3.cloud.um6p.ma.53283"
"cpu-h23b5-u30-svn3.cloud.um6p.ma.53284"
"cpu-h23b5-u30-svn3.cloud.um6p.ma.53285"
"cpu-h23b5-u30-svn3.cloud.um6p.ma.53286"
"cpu-h23b5-u30-svn3.cloud.um6p.ma.53287"
"cpu-h23b5-u30-svn3.cloud.um6p.ma.53288"
"cpu-h23b5-u30-svn3.cloud.um6p.ma.53289"
"cpu-h23b5-u30-svn3.cloud.um6p.ma.53290"
"cpu-h23b5-u30-svn3.cloud.um6p.ma.53291"
"cpu-h23b5-u30-svn3.cloud.um6p.ma.53292"
"cpu-h23b5-u30-svn3.cloud.um6p.ma.53293"
"cpu-h23b5-u30-svn3.cloud.um6p.ma.53294"
"cpu-h23b5-u30-svn3.cloud.um6p.ma.53295"
"cpu-h23b5-u30-svn3.cloud.um6p.ma.53296"
"cpu-h23b5-u30-svn3.cloud.um6p.ma.53297"
"cpu-h23b5-u30-svn3.cloud.um6p.ma.53298"
"cpu-h23b5-u30-svn3.cloud.um6p.ma.53299"
"cpu-h23b5-u30-svn3.cloud.um6p.ma.53300"
"cpu-h23b5-u30-svn3.cloud.um6p.ma.53301"
"cpu-h23b5-u30-svn3.cloud.um6p.ma.53302"
"cpu-h23b5-u30-svn3.cloud.um6p.ma.53303"
"cpu-h23b5-u31-svn2.cloud.um6p.ma.53338"
"cpu-h23b5-u31-svn2.cloud.um6p.ma.53339"
"cpu-h23b5-u31-svn2.cloud.um6p.ma.53340"
"cpu-h23b5-u31-svn2.cloud.um6p.ma.53341"
"cpu-h23b5-u31-svn2.cloud.um6p.ma.53342"
"cpu-h23b5-u31-svn2.cloud.um6p.ma.53343"
"cpu-h23b5-u31-svn2.cloud.um6p.ma.53344"
"cpu-h23b5-u31-svn2.cloud.um6p.ma.53345"
"cpu-h23b5-u31-svn2.cloud.um6p.ma.53346"
"cpu-h23b5-u31-svn2.cloud.um6p.ma.53347"
"cpu-h23b5-u31-svn2.cloud.um6p.ma.53348"
"cpu-h23b5-u31-svn2.cloud.um6p.ma.53349"
"cpu-h23b5-u31-svn2.cloud.um6p.ma.53350"
"cpu-h23b5-u31-svn2.cloud.um6p.ma.53351"
"cpu-h23b5-u31-svn2.cloud.um6p.ma.53352"
"cpu-h23b5-u31-svn2.cloud.um6p.ma.53353"
"cpu-h23b5-u31-svn2.cloud.um6p.ma.53354"
"cpu-h23b5-u31-svn2.cloud.um6p.ma.53355"
"cpu-h23b5-u31-svn2.cloud.um6p.ma.53356"
"cpu-h23b5-u31-svn2.cloud.um6p.ma.53357"
"cpu-h23b5-u31-svn2.cloud.um6p.ma.53358"
"cpu-h23b5-u31-svn2.cloud.um6p.ma.53359"
"cpu-h23b5-u31-svn2.cloud.um6p.ma.53360"
"cpu-h23b5-u31-svn2.cloud.um6p.ma.53361"
"cpu-h23b5-u31-svn2.cloud.um6p.ma.53362"
"cpu-h23b5-u31-svn2.cloud.um6p.ma.53363"
"cpu-h23b5-u31-svn2.cloud.um6p.ma.53364"
"cpu-h23b5-u31-svn2.cloud.um6p.ma.53365"
"cpu-h23b5-u31-svn2.cloud.um6p.ma.53366"
"cpu-h23b5-u31-svn2.cloud.um6p.ma.53367"
"cpu-h23b5-u31-svn2.cloud.um6p.ma.53368"
"cpu-h23b5-u31-svn2.cloud.um6p.ma.53369"
"cpu-h23b5-u31-svn2.cloud.um6p.ma.53370"
"cpu-h23b5-u31-svn2.cloud.um6p.ma.53371"
"cpu-h23b5-u31-svn2.cloud.um6p.ma.53372"
"cpu-h23b5-u31-svn2.cloud.um6p.ma.53373"
"cpu-h23b5-u31-svn2.cloud.um6p.ma.53374"
"cpu-h23b5-u31-svn2.cloud.um6p.ma.53375"
"cpu-h23b5-u31-svn2.cloud.um6p.ma.53376"
"cpu-h23b5-u31-svn2.cloud.um6p.ma.53377"
"cpu-h23b5-u31-svn2.cloud.um6p.ma.53378"
"cpu-h23b5-u31-svn2.cloud.um6p.ma.53379"
"cpu-h23b5-u31-svn2.cloud.um6p.ma.53380"
"cpu-h23b5-u31-svn2.cloud.um6p.ma.53381"
"cpu-h23b5-u31-svn2.cloud.um6p.ma.53382"
"cpu-h23b5-u31-svn2.cloud.um6p.ma.53383"
"cpu-h23b5-u31-svn2.cloud.um6p.ma.53384"
"cpu-h23b5-u31-svn2.cloud.um6p.ma.53385"
"cpu-h23b5-u31-svn2.cloud.um6p.ma.53386"
"cpu-h23b5-u31-svn2.cloud.um6p.ma.53387"
"cpu-h23b5-u31-svn2.cloud.um6p.ma.53388"
"cpu-h23b5-u31-svn2.cloud.um6p.ma.53389"
"cpu-h23b5-u31-svn2.cloud.um6p.ma.53390"
"cpu-h23b5-u31-svn2.cloud.um6p.ma.53391"
"cpu-h23b5-u31-svn2.cloud.um6p.ma.53392"
"cpu-h23b5-u31-svn2.cloud.um6p.ma.53393"
"cpu-h23b5-u31-svn4.cloud.um6p.ma.52704"
"cpu-h23b5-u31-svn4.cloud.um6p.ma.52705"
"cpu-h23b5-u31-svn4.cloud.um6p.ma.52706"
"cpu-h23b5-u31-svn4.cloud.um6p.ma.52707"
"cpu-h23b5-u31-svn4.cloud.um6p.ma.52708"
"cpu-h23b5-u31-svn4.cloud.um6p.ma.52709"
"cpu-h23b5-u31-svn4.cloud.um6p.ma.52710"
"cpu-h23b5-u31-svn4.cloud.um6p.ma.52711"
"cpu-h23b5-u31-svn4.cloud.um6p.ma.52712"
"cpu-h23b5-u31-svn4.cloud.um6p.ma.52713"
"cpu-h23b5-u31-svn4.cloud.um6p.ma.52714"
"cpu-h23b5-u31-svn4.cloud.um6p.ma.52715"
"cpu-h23b5-u31-svn4.cloud.um6p.ma.52716"
"cpu-h23b5-u31-svn4.cloud.um6p.ma.52717"
"cpu-h23b5-u31-svn4.cloud.um6p.ma.52718"
"cpu-h23b5-u31-svn4.cloud.um6p.ma.52719"
"cpu-h23b5-u31-svn4.cloud.um6p.ma.52720"
"cpu-h23b5-u31-svn4.cloud.um6p.ma.52721"
"cpu-h23b5-u31-svn4.cloud.um6p.ma.52722"
"cpu-h23b5-u31-svn4.cloud.um6p.ma.52723"
"cpu-h23b5-u31-svn4.cloud.um6p.ma.52724"
"cpu-h23b5-u31-svn4.cloud.um6p.ma.52725"
"cpu-h23b5-u31-svn4.cloud.um6p.ma.52726"
"cpu-h23b5-u31-svn4.cloud.um6p.ma.52727"
"cpu-h23b5-u31-svn4.cloud.um6p.ma.52728"
"cpu-h23b5-u31-svn4.cloud.um6p.ma.52729"
"cpu-h23b5-u31-svn4.cloud.um6p.ma.52730"
"cpu-h23b5-u31-svn4.cloud.um6p.ma.52731"
"cpu-h23b5-u31-svn4.cloud.um6p.ma.52732"
"cpu-h23b5-u31-svn4.cloud.um6p.ma.52733"
"cpu-h23b5-u31-svn4.cloud.um6p.ma.52734"
"cpu-h23b5-u31-svn4.cloud.um6p.ma.52735"
"cpu-h23b5-u31-svn4.cloud.um6p.ma.52736"
"cpu-h23b5-u31-svn4.cloud.um6p.ma.52737"
"cpu-h23b5-u31-svn4.cloud.um6p.ma.52738"
"cpu-h23b5-u31-svn4.cloud.um6p.ma.52739"
"cpu-h23b5-u31-svn4.cloud.um6p.ma.52740"
"cpu-h23b5-u31-svn4.cloud.um6p.ma.52741"
"cpu-h23b5-u31-svn4.cloud.um6p.ma.52742"
"cpu-h23b5-u31-svn4.cloud.um6p.ma.52743"
"cpu-h23b5-u31-svn4.cloud.um6p.ma.52744"
"cpu-h23b5-u31-svn4.cloud.um6p.ma.52745"
"cpu-h23b5-u31-svn4.cloud.um6p.ma.52746"
"cpu-h23b5-u31-svn4.cloud.um6p.ma.52747"
"cpu-h23b5-u31-svn4.cloud.um6p.ma.52748"
"cpu-h23b5-u31-svn4.cloud.um6p.ma.52749"
"cpu-h23b5-u31-svn4.cloud.um6p.ma.52750"
"cpu-h23b5-u31-svn4.cloud.um6p.ma.52751"
"cpu-h23b5-u31-svn4.cloud.um6p.ma.52752"
"cpu-h23b5-u31-svn4.cloud.um6p.ma.52753"
"cpu-h23b5-u31-svn4.cloud.um6p.ma.52754"
"cpu-h23b5-u31-svn4.cloud.um6p.ma.52755"
"cpu-h23b5-u31-svn4.cloud.um6p.ma.52756"
"cpu-h23b5-u31-svn4.cloud.um6p.ma.52757"
"cpu-h23b5-u31-svn4.cloud.um6p.ma.52758"
"cpu-h23b5-u31-svn4.cloud.um6p.ma.52759"
"cpu-h23b5-u32-svn1.cloud.um6p.ma.56499"
"cpu-h23b5-u32-svn1.cloud.um6p.ma.56500"
"cpu-h23b5-u32-svn1.cloud.um6p.ma.56501"
"cpu-h23b5-u32-svn1.cloud.um6p.ma.56502"
"cpu-h23b5-u32-svn1.cloud.um6p.ma.56503"
"cpu-h23b5-u32-svn1.cloud.um6p.ma.56504"
"cpu-h23b5-u32-svn1.cloud.um6p.ma.56505"
"cpu-h23b5-u32-svn1.cloud.um6p.ma.56506"
"cpu-h23b5-u32-svn1.cloud.um6p.ma.56507"
"cpu-h23b5-u32-svn1.cloud.um6p.ma.56508"
"cpu-h23b5-u32-svn1.cloud.um6p.ma.56509"
"cpu-h23b5-u32-svn1.cloud.um6p.ma.56510"
"cpu-h23b5-u32-svn1.cloud.um6p.ma.56511"
"cpu-h23b5-u32-svn1.cloud.um6p.ma.56512"
"cpu-h23b5-u32-svn1.cloud.um6p.ma.56513"
"cpu-h23b5-u32-svn1.cloud.um6p.ma.56514"
"cpu-h23b5-u32-svn1.cloud.um6p.ma.56515"
"cpu-h23b5-u32-svn1.cloud.um6p.ma.56516"
"cpu-h23b5-u32-svn1.cloud.um6p.ma.56517"
"cpu-h23b5-u32-svn1.cloud.um6p.ma.56518"
"cpu-h23b5-u32-svn1.cloud.um6p.ma.56519"
"cpu-h23b5-u32-svn1.cloud.um6p.ma.56520"
"cpu-h23b5-u32-svn1.cloud.um6p.ma.56521"
"cpu-h23b5-u32-svn1.cloud.um6p.ma.56522"
"cpu-h23b5-u32-svn1.cloud.um6p.ma.56523"
"cpu-h23b5-u32-svn1.cloud.um6p.ma.56524"
"cpu-h23b5-u32-svn1.cloud.um6p.ma.56525"
"cpu-h23b5-u32-svn1.cloud.um6p.ma.56526"
"cpu-h23b5-u32-svn1.cloud.um6p.ma.56527"
"cpu-h23b5-u32-svn1.cloud.um6p.ma.56528"
"cpu-h23b5-u32-svn1.cloud.um6p.ma.56529"
"cpu-h23b5-u32-svn1.cloud.um6p.ma.56530"
"cpu-h23b5-u32-svn1.cloud.um6p.ma.56531"
"cpu-h23b5-u32-svn1.cloud.um6p.ma.56532"
"cpu-h23b5-u32-svn1.cloud.um6p.ma.56533"
"cpu-h23b5-u32-svn1.cloud.um6p.ma.56534"
"cpu-h23b5-u32-svn1.cloud.um6p.ma.56535"
"cpu-h23b5-u32-svn1.cloud.um6p.ma.56536"
"cpu-h23b5-u32-svn1.cloud.um6p.ma.56537"
"cpu-h23b5-u32-svn1.cloud.um6p.ma.56538"
"cpu-h23b5-u32-svn1.cloud.um6p.ma.56539"
"cpu-h23b5-u32-svn1.cloud.um6p.ma.56540"
"cpu-h23b5-u32-svn1.cloud.um6p.ma.56541"
"cpu-h23b5-u32-svn1.cloud.um6p.ma.56542"
"cpu-h23b5-u32-svn1.cloud.um6p.ma.56543"
"cpu-h23b5-u32-svn1.cloud.um6p.ma.56544"
"cpu-h23b5-u32-svn1.cloud.um6p.ma.56545"
"cpu-h23b5-u32-svn1.cloud.um6p.ma.56546"
"cpu-h23b5-u32-svn1.cloud.um6p.ma.56547"
"cpu-h23b5-u32-svn1.cloud.um6p.ma.56548"
"cpu-h23b5-u32-svn1.cloud.um6p.ma.56549"
"cpu-h23b5-u32-svn1.cloud.um6p.ma.56550"
"cpu-h23b5-u32-svn1.cloud.um6p.ma.56551"
"cpu-h23b5-u32-svn1.cloud.um6p.ma.56552"
"cpu-h23b5-u32-svn1.cloud.um6p.ma.56553"
"cpu-h23b5-u32-svn1.cloud.um6p.ma.56554"
"cpu-h23b5-u32-svn3.cloud.um6p.ma.54504"
"cpu-h23b5-u32-svn3.cloud.um6p.ma.54505"
"cpu-h23b5-u32-svn3.cloud.um6p.ma.54506"
"cpu-h23b5-u32-svn3.cloud.um6p.ma.54507"
"cpu-h23b5-u32-svn3.cloud.um6p.ma.54508"
"cpu-h23b5-u32-svn3.cloud.um6p.ma.54509"
"cpu-h23b5-u32-svn3.cloud.um6p.ma.54510"
"cpu-h23b5-u32-svn3.cloud.um6p.ma.54511"
"cpu-h23b5-u32-svn3.cloud.um6p.ma.54512"
"cpu-h23b5-u32-svn3.cloud.um6p.ma.54513"
"cpu-h23b5-u32-svn3.cloud.um6p.ma.54514"
"cpu-h23b5-u32-svn3.cloud.um6p.ma.54515"
"cpu-h23b5-u32-svn3.cloud.um6p.ma.54516"
"cpu-h23b5-u32-svn3.cloud.um6p.ma.54517"
"cpu-h23b5-u32-svn3.cloud.um6p.ma.54518"
"cpu-h23b5-u32-svn3.cloud.um6p.ma.54519"
"cpu-h23b5-u32-svn3.cloud.um6p.ma.54520"
"cpu-h23b5-u32-svn3.cloud.um6p.ma.54521"
"cpu-h23b5-u32-svn3.cloud.um6p.ma.54522"
"cpu-h23b5-u32-svn3.cloud.um6p.ma.54523"
"cpu-h23b5-u32-svn3.cloud.um6p.ma.54524"
"cpu-h23b5-u32-svn3.cloud.um6p.ma.54525"
"cpu-h23b5-u32-svn3.cloud.um6p.ma.54526"
"cpu-h23b5-u32-svn3.cloud.um6p.ma.54527"
"cpu-h23b5-u32-svn3.cloud.um6p.ma.54528"
"cpu-h23b5-u32-svn3.cloud.um6p.ma.54529"
"cpu-h23b5-u32-svn3.cloud.um6p.ma.54530"
"cpu-h23b5-u32-svn3.cloud.um6p.ma.54531"
"cpu-h23b5-u32-svn3.cloud.um6p.ma.54532"
"cpu-h23b5-u32-svn3.cloud.um6p.ma.54533"
"cpu-h23b5-u32-svn3.cloud.um6p.ma.54534"
"cpu-h23b5-u32-svn3.cloud.um6p.ma.54535"
"cpu-h23b5-u32-svn3.cloud.um6p.ma.54536"
"cpu-h23b5-u32-svn3.cloud.um6p.ma.54537"
"cpu-h23b5-u32-svn3.cloud.um6p.ma.54538"
"cpu-h23b5-u32-svn3.cloud.um6p.ma.54539"
"cpu-h23b5-u32-svn3.cloud.um6p.ma.54540"
"cpu-h23b5-u32-svn3.cloud.um6p.ma.54541"
"cpu-h23b5-u32-svn3.cloud.um6p.ma.54542"
"cpu-h23b5-u32-svn3.cloud.um6p.ma.54543"
"cpu-h23b5-u32-svn3.cloud.um6p.ma.54544"
"cpu-h23b5-u32-svn3.cloud.um6p.ma.54545"
"cpu-h23b5-u32-svn3.cloud.um6p.ma.54546"
"cpu-h23b5-u32-svn3.cloud.um6p.ma.54547"
"cpu-h23b5-u32-svn3.cloud.um6p.ma.54548"
"cpu-h23b5-u32-svn3.cloud.um6p.ma.54549"
"cpu-h23b5-u32-svn3.cloud.um6p.ma.54550"
"cpu-h23b5-u32-svn3.cloud.um6p.ma.54551"
"cpu-h23b5-u32-svn3.cloud.um6p.ma.54552"
"cpu-h23b5-u32-svn3.cloud.um6p.ma.54553"
"cpu-h23b5-u32-svn3.cloud.um6p.ma.54554"
"cpu-h23b5-u32-svn3.cloud.um6p.ma.54555"
"cpu-h23b5-u32-svn3.cloud.um6p.ma.54556"
"cpu-h23b5-u32-svn3.cloud.um6p.ma.54557"
"cpu-h23b5-u32-svn3.cloud.um6p.ma.54558"
"cpu-h23b5-u32-svn3.cloud.um6p.ma.54559"
)

Pstream initialized with:
    floatTransfer      : 0
    nProcsSimpleSum    : 0
    commsType          : nonBlocking
    polling iterations : 0
sigFpe : Enabling floating point exception trapping (FOAM_SIGFPE).
fileModificationChecking : Monitoring run-time modified files using timeStampMaster (fileModificationSkew 10)
allowSystemOperations : Allowing user-supplied system call operations

// * * * * * * * * * * * * * * * * * * * * * * * * * * * * * * * * * * * * * //
Create time

Create mesh for time = 0


SIMPLE: No convergence criteria found

Reading field p

Reading field U

Reading/calculating face flux field phi

Selecting incompressible transport model Newtonian
Selecting turbulence model type RAS
Selecting RAS turbulence model kOmegaSST
Selecting patchDistMethod meshWave
RAS
{
    RASModel        kOmegaSST;
    turbulence      on;
    printCoeffs     on;
    alphaK1         0.85;
    alphaK2         1;
    alphaOmega1     0.5;
    alphaOmega2     0.856;
    gamma1          0.555556;
    gamma2          0.44;
    beta1           0.075;
    beta2           0.0828;
    betaStar        0.09;
    a1              0.31;
    b1              1;
    c1              10;
    F3              false;
}

No MRF models present

No finite volume options present

Starting time loop

Reading surface description:
    yNormal

forces forceCoeffs1:
    Not including porosity effects
forceCoeffs forceCoeffs1:
    Not including porosity effects
Time = 1

smoothSolver:  Solving for Ux, Initial residual = 1, Final residual = 0.0947934, No Iterations 14
smoothSolver:  Solving for Uy, Initial residual = 1, Final residual = 0.0863285, No Iterations 13
smoothSolver:  Solving for Uz, Initial residual = 1, Final residual = 0.0966268, No Iterations 13
GAMG:  Solving for p, Initial residual = 1, Final residual = 0.00898907, No Iterations 6
time step continuity errors : sum local = 0.000636423, global = 4.78122e-06, cumulative = 4.78122e-06
smoothSolver:  Solving for omega, Initial residual = 0.0280874, Final residual = 0.00147188, No Iterations 3
bounding omega, min: -2182.54 max: 71305.3 average: 490.071
smoothSolver:  Solving for k, Initial residual = 1, Final residual = 0.077689, No Iterations 4
ExecutionTime = 1.7 s  ClockTime = 2 s

forceCoeffs forceCoeffs1 write:
    Cm    = 12.3981
    Cd    = 26.8076
    Cl    = -1.81449
    Cl(f) = 11.4908
    Cl(r) = -13.3053

Time = 2

smoothSolver:  Solving for Ux, Initial residual = 0.107195, Final residual = 0.00972005, No Iterations 12
smoothSolver:  Solving for Uy, Initial residual = 0.51817, Final residual = 0.0515916, No Iterations 11
smoothSolver:  Solving for Uz, Initial residual = 0.393702, Final residual = 0.0382374, No Iterations 11
GAMG:  Solving for p, Initial residual = 0.232407, Final residual = 0.00214634, No Iterations 4
time step continuity errors : sum local = 0.00960117, global = 2.3934e-05, cumulative = 2.87152e-05
smoothSolver:  Solving for omega, Initial residual = 1, Final residual = 0.0726942, No Iterations 4
smoothSolver:  Solving for k, Initial residual = 0.970331, Final residual = 6.03258e-09, No Iterations 1
ExecutionTime = 2.19 s  ClockTime = 2 s

forceCoeffs forceCoeffs1 write:
    Cm    = 4.77963
    Cd    = 10.9233
    Cl    = -0.382482
    Cl(f) = 4.58839
    Cl(r) = -4.97087

Time = 3

smoothSolver:  Solving for Ux, Initial residual = 0.143395, Final residual = 0.0120879, No Iterations 5
smoothSolver:  Solving for Uy, Initial residual = 0.570536, Final residual = 0.0439906, No Iterations 6
smoothSolver:  Solving for Uz, Initial residual = 0.633665, Final residual = 0.0508597, No Iterations 5
GAMG:  Solving for p, Initial residual = 0.146799, Final residual = 0.000822941, No Iterations 5
time step continuity errors : sum local = 0.00291098, global = 2.54842e-05, cumulative = 5.41994e-05
smoothSolver:  Solving for omega, Initial residual = 0.538466, Final residual = 8.66627e-14, No Iterations 1
bounding omega, min: -1.82058e+08 max: 7.60781e+16 average: 1.57863e+11
smoothSolver:  Solving for k, Initial residual = 0.115417, Final residual = 7.38609e-09, No Iterations 1
ExecutionTime = 2.57 s  ClockTime = 3 s

forceCoeffs forceCoeffs1 write:
    Cm    = 3.6503
    Cd    = 8.41078
    Cl    = -1.39037
    Cl(f) = 2.95512
    Cl(r) = -4.34548

Time = 4

smoothSolver:  Solving for Ux, Initial residual = 0.064332, Final residual = 0.00521958, No Iterations 6
smoothSolver:  Solving for Uy, Initial residual = 0.472169, Final residual = 0.0387266, No Iterations 6
smoothSolver:  Solving for Uz, Initial residual = 0.463661, Final residual = 0.034637, No Iterations 6
GAMG:  Solving for p, Initial residual = 0.0788082, Final residual = 0.000356441, No Iterations 5
time step continuity errors : sum local = 0.00153608, global = 8.73153e-06, cumulative = 6.29309e-05
smoothSolver:  Solving for omega, Initial residual = 0.538466, Final residual = 3.42184e-13, No Iterations 1
bounding omega, min: -466713 max: 2.28234e+16 average: 4.73609e+10
smoothSolver:  Solving for k, Initial residual = 0.0271906, Final residual = 1.976e-08, No Iterations 1
[...]
smoothSolver:  Solving for k, Initial residual = 0.00206804, Final residual = 0.000140001, No Iterations 4
ExecutionTime = 12.95 s  ClockTime = 13 s

forceCoeffs forceCoeffs1 write:
    Cm    = 0.154476
    Cd    = 0.404004
    Cl    = 0.0777826
    Cl(f) = 0.193367
    Cl(r) = -0.115585

Time = 80

smoothSolver:  Solving for Ux, Initial residual = 0.00102375, Final residual = 9.78322e-05, No Iterations 10
smoothSolver:  Solving for Uy, Initial residual = 0.0248411, Final residual = 0.00205563, No Iterations 10
smoothSolver:  Solving for Uz, Initial residual = 0.0213746, Final residual = 0.00185332, No Iterations 10
GAMG:  Solving for p, Initial residual = 0.0107541, Final residual = 7.73799e-05, No Iterations 4
time step continuity errors : sum local = 0.00011716, global = 8.81011e-08, cumulative = -3.84773e-05
smoothSolver:  Solving for omega, Initial residual = 0.000154386, Final residual = 1.52737e-05, No Iterations 3
smoothSolver:  Solving for k, Initial residual = 0.00205446, Final residual = 0.000138589, No Iterations 4
ExecutionTime = 12.99 s  ClockTime = 13 s

forceCoeffs forceCoeffs1 write:
    Cm    = 0.154322
    Cd    = 0.404282
    Cl    = 0.0782919
    Cl(f) = 0.193468
    Cl(r) = -0.115176

Time = 81

smoothSolver:  Solving for Ux, Initial residual = 0.0010011, Final residual = 9.57832e-05, No Iterations 10
smoothSolver:  Solving for Uy, Initial residual = 0.0243263, Final residual = 0.00202645, No Iterations 10
smoothSolver:  Solving for Uz, Initial residual = 0.0208386, Final residual = 0.00180434, No Iterations 10
GAMG:  Solving for p, Initial residual = 0.0106489, Final residual = 7.60868e-05, No Iterations 4
time step continuity errors : sum local = 0.000115225, global = -4.26243e-07, cumulative = -3.89035e-05
smoothSolver:  Solving for omega, Initial residual = 0.000153328, Final residual = 1.51666e-05, No Iterations 3
smoothSolver:  Solving for k, Initial residual = 0.0020378, Final residual = 0.00013699, No Iterations 4
ExecutionTime = 13.04 s  ClockTime = 13 s

forceCoeffs forceCoeffs1 write:
    Cm    = 0.154183
    Cd    = 0.404658
    Cl    = 0.0785756
    Cl(f) = 0.19347
    Cl(r) = -0.114895

Time = 82

smoothSolver:  Solving for Ux, Initial residual = 0.000981462, Final residual = 9.44282e-05, No Iterations 10
smoothSolver:  Solving for Uy, Initial residual = 0.0239508, Final residual = 0.00200626, No Iterations 10
smoothSolver:  Solving for Uz, Initial residual = 0.0203689, Final residual = 0.00177187, No Iterations 10
GAMG:  Solving for p, Initial residual = 0.0105349, Final residual = 7.70291e-05, No Iterations 4
time step continuity errors : sum local = 0.000116621, global = -8.56069e-07, cumulative = -3.97596e-05
smoothSolver:  Solving for omega, Initial residual = 0.000151987, Final residual = 1.5054e-05, No Iterations 3
smoothSolver:  Solving for k, Initial residual = 0.00202447, Final residual = 0.000135629, No Iterations 4
ExecutionTime = 13.16 s  ClockTime = 14 s

forceCoeffs forceCoeffs1 write:
    Cm    = 0.154153
    Cd    = 0.405049
    Cl    = 0.0786284
    Cl(f) = 0.193467
    Cl(r) = -0.114839

Time = 83

smoothSolver:  Solving for Ux, Initial residual = 0.000969204, Final residual = 9.37856e-05, No Iterations 10
smoothSolver:  Solving for Uy, Initial residual = 0.0237203, Final residual = 0.00199192, No Iterations 10
smoothSolver:  Solving for Uz, Initial residual = 0.0201186, Final residual = 0.00175482, No Iterations 10
GAMG:  Solving for p, Initial residual = 0.0104251, Final residual = 7.7673e-05, No Iterations 4
time step continuity errors : sum local = 0.000117529, global = -8.74995e-07, cumulative = -4.06346e-05
smoothSolver:  Solving for omega, Initial residual = 0.00015041, Final residual = 1.49191e-05, No Iterations 3
smoothSolver:  Solving for k, Initial residual = 0.00201016, Final residual = 0.000134514, No Iterations 4
ExecutionTime = 13.26 s  ClockTime = 14 s

forceCoeffs forceCoeffs1 write:
    Cm    = 0.154203
    Cd    = 0.405381
    Cl    = 0.07833
    Cl(f) = 0.193368
    Cl(r) = -0.115038

Time = 84

smoothSolver:  Solving for Ux, Initial residual = 0.000964751, Final residual = 9.34808e-05, No Iterations 10
smoothSolver:  Solving for Uy, Initial residual = 0.0236614, Final residual = 0.00198558, No Iterations 10
smoothSolver:  Solving for Uz, Initial residual = 0.0200918, Final residual = 0.00175348, No Iterations 10
GAMG:  Solving for p, Initial residual = 0.0103543, Final residual = 7.83184e-05, No Iterations 4
time step continuity errors : sum local = 0.000118389, global = -7.51563e-07, cumulative = -4.13861e-05
smoothSolver:  Solving for omega, Initial residual = 0.000149351, Final residual = 1.48098e-05, No Iterations 3
smoothSolver:  Solving for k, Initial residual = 0.00200094, Final residual = 0.000133445, No Iterations 4
ExecutionTime = 13.31 s  ClockTime = 14 s

forceCoeffs forceCoeffs1 write:
    Cm    = 0.154387
    Cd    = 0.405645
    Cl    = 0.0780382
    Cl(f) = 0.193406
    Cl(r) = -0.115368

Time = 85

smoothSolver:  Solving for Ux, Initial residual = 0.00096477, Final residual = 9.35424e-05, No Iterations 10
smoothSolver:  Solving for Uy, Initial residual = 0.023701, Final residual = 0.00198292, No Iterations 10
smoothSolver:  Solving for Uz, Initial residual = 0.0201785, Final residual = 0.00176344, No Iterations 10
GAMG:  Solving for p, Initial residual = 0.0103106, Final residual = 7.90751e-05, No Iterations 4
time step continuity errors : sum local = 0.000119407, global = -4.67325e-07, cumulative = -4.18535e-05
smoothSolver:  Solving for omega, Initial residual = 0.000148363, Final residual = 1.46786e-05, No Iterations 3
smoothSolver:  Solving for k, Initial residual = 0.00199288, Final residual = 0.000132477, No Iterations 4
ExecutionTime = 13.35 s  ClockTime = 14 s

forceCoeffs forceCoeffs1 write:
    Cm    = 0.154613
    Cd    = 0.405875
    Cl    = 0.0777925
    Cl(f) = 0.193509
    Cl(r) = -0.115717

Time = 86

smoothSolver:  Solving for Ux, Initial residual = 0.000967748, Final residual = 9.37606e-05, No Iterations 10
smoothSolver:  Solving for Uy, Initial residual = 0.0236796, Final residual = 0.00197889, No Iterations 10
smoothSolver:  Solving for Uz, Initial residual = 0.0202753, Final residual = 0.0017757, No Iterations 10
GAMG:  Solving for p, Initial residual = 0.0102985, Final residual = 7.99915e-05, No Iterations 4
time step continuity errors : sum local = 0.000120686, global = -2.14489e-07, cumulative = -4.2068e-05
smoothSolver:  Solving for omega, Initial residual = 0.000147926, Final residual = 1.4588e-05, No Iterations 3
smoothSolver:  Solving for k, Initial residual = 0.00198431, Final residual = 0.00013158, No Iterations 4
ExecutionTime = 13.4 s  ClockTime = 14 s

forceCoeffs forceCoeffs1 write:
    Cm    = 0.154864
    Cd    = 0.406053
    Cl    = 0.077733
    Cl(f) = 0.193731
    Cl(r) = -0.115998

Time = 87

smoothSolver:  Solving for Ux, Initial residual = 0.000968775, Final residual = 9.39628e-05, No Iterations 10
smoothSolver:  Solving for Uy, Initial residual = 0.0235534, Final residual = 0.00197058, No Iterations 10
smoothSolver:  Solving for Uz, Initial residual = 0.0203057, Final residual = 0.00178658, No Iterations 10
GAMG:  Solving for p, Initial residual = 0.0102828, Final residual = 7.98429e-05, No Iterations 4
time step continuity errors : sum local = 0.000120394, global = -1.45974e-08, cumulative = -4.20826e-05
smoothSolver:  Solving for omega, Initial residual = 0.000147737, Final residual = 1.45095e-05, No Iterations 3
smoothSolver:  Solving for k, Initial residual = 0.00197675, Final residual = 0.000130869, No Iterations 4
ExecutionTime = 13.45 s  ClockTime = 14 s

forceCoeffs forceCoeffs1 write:
    Cm    = 0.155118
    Cd    = 0.406276
    Cl    = 0.0776889
    Cl(f) = 0.193962
    Cl(r) = -0.116273

Time = 88

smoothSolver:  Solving for Ux, Initial residual = 0.000966624, Final residual = 9.42819e-05, No Iterations 10
smoothSolver:  Solving for Uy, Initial residual = 0.0233193, Final residual = 0.00195442, No Iterations 10
smoothSolver:  Solving for Uz, Initial residual = 0.0202707, Final residual = 0.00179913, No Iterations 10
GAMG:  Solving for p, Initial residual = 0.0102338, Final residual = 7.83049e-05, No Iterations 4
time step continuity errors : sum local = 0.000118035, global = 2.63946e-07, cumulative = -4.18186e-05
smoothSolver:  Solving for omega, Initial residual = 0.000147557, Final residual = 1.45263e-05, No Iterations 3
smoothSolver:  Solving for k, Initial residual = 0.00197211, Final residual = 0.000130517, No Iterations 4
ExecutionTime = 13.5 s  ClockTime = 14 s

forceCoeffs forceCoeffs1 write:
    Cm    = 0.155435
    Cd    = 0.406531
    Cl    = 0.0777317
    Cl(f) = 0.194301
    Cl(r) = -0.11657

Time = 89

smoothSolver:  Solving for Ux, Initial residual = 0.000963215, Final residual = 9.46053e-05, No Iterations 10
smoothSolver:  Solving for Uy, Initial residual = 0.0230739, Final residual = 0.00193899, No Iterations 10
smoothSolver:  Solving for Uz, Initial residual = 0.0201853, Final residual = 0.00181133, No Iterations 10
GAMG:  Solving for p, Initial residual = 0.0101619, Final residual = 7.66262e-05, No Iterations 4
time step continuity errors : sum local = 0.000115499, global = 7.12308e-07, cumulative = -4.11063e-05
smoothSolver:  Solving for omega, Initial residual = 0.00014774, Final residual = 1.45826e-05, No Iterations 3
smoothSolver:  Solving for k, Initial residual = 0.00196723, Final residual = 0.00013052, No Iterations 4
ExecutionTime = 13.55 s  ClockTime = 14 s

forceCoeffs forceCoeffs1 write:
    Cm    = 0.155864
    Cd    = 0.40689
    Cl    = 0.0776724
    Cl(f) = 0.1947
    Cl(r) = -0.117028

Time = 90

smoothSolver:  Solving for Ux, Initial residual = 0.000958762, Final residual = 9.47059e-05, No Iterations 10
smoothSolver:  Solving for Uy, Initial residual = 0.0228627, Final residual = 0.00193301, No Iterations 10
smoothSolver:  Solving for Uz, Initial residual = 0.0200555, Final residual = 0.00181062, No Iterations 10
GAMG:  Solving for p, Initial residual = 0.0100696, Final residual = 7.5696e-05, No Iterations 4
time step continuity errors : sum local = 0.00011416, global = 7.3736e-07, cumulative = -4.03689e-05
smoothSolver:  Solving for omega, Initial residual = 0.000147499, Final residual = 1.46178e-05, No Iterations 3
smoothSolver:  Solving for k, Initial residual = 0.00195815, Final residual = 0.000130401, No Iterations 4
ExecutionTime = 13.6 s  ClockTime = 14 s

forceCoeffs forceCoeffs1 write:
    Cm    = 0.156464
    Cd    = 0.407298
    Cl    = 0.0775397
    Cl(f) = 0.195234
    Cl(r) = -0.117694

Time = 91

smoothSolver:  Solving for Ux, Initial residual = 0.000951843, Final residual = 9.44125e-05, No Iterations 10
smoothSolver:  Solving for Uy, Initial residual = 0.0226889, Final residual = 0.0019319, No Iterations 10
smoothSolver:  Solving for Uz, Initial residual = 0.0198905, Final residual = 0.00179325, No Iterations 10
GAMG:  Solving for p, Initial residual = 0.00999123, Final residual = 7.5599e-05, No Iterations 4
time step continuity errors : sum local = 0.000114183, global = 8.95866e-07, cumulative = -3.94731e-05
smoothSolver:  Solving for omega, Initial residual = 0.000146878, Final residual = 1.45919e-05, No Iterations 3
smoothSolver:  Solving for k, Initial residual = 0.00194308, Final residual = 0.000130009, No Iterations 4
ExecutionTime = 13.65 s  ClockTime = 14 s

forceCoeffs forceCoeffs1 write:
    Cm    = 0.157197
    Cd    = 0.407799
    Cl    = 0.0771614
    Cl(f) = 0.195778
    Cl(r) = -0.118616

Time = 92

smoothSolver:  Solving for Ux, Initial residual = 0.000942487, Final residual = 9.37047e-05, No Iterations 10
smoothSolver:  Solving for Uy, Initial residual = 0.0225773, Final residual = 0.00192622, No Iterations 10
smoothSolver:  Solving for Uz, Initial residual = 0.019754, Final residual = 0.00176691, No Iterations 10
GAMG:  Solving for p, Initial residual = 0.00992825, Final residual = 7.62687e-05, No Iterations 4
time step continuity errors : sum local = 0.00011544, global = 8.91299e-07, cumulative = -3.85818e-05
smoothSolver:  Solving for omega, Initial residual = 0.000146397, Final residual = 1.45437e-05, No Iterations 3
smoothSolver:  Solving for k, Initial residual = 0.0019238, Final residual = 0.000129241, No Iterations 4
ExecutionTime = 13.7 s  ClockTime = 14 s

forceCoeffs forceCoeffs1 write:
    Cm    = 0.157984
    Cd    = 0.408273
    Cl    = 0.0766222
    Cl(f) = 0.196295
    Cl(r) = -0.119673

Time = 93

smoothSolver:  Solving for Ux, Initial residual = 0.000935327, Final residual = 9.32276e-05, No Iterations 10
smoothSolver:  Solving for Uy, Initial residual = 0.0225808, Final residual = 0.00191738, No Iterations 10
smoothSolver:  Solving for Uz, Initial residual = 0.019658, Final residual = 0.0017355, No Iterations 10
GAMG:  Solving for p, Initial residual = 0.00989525, Final residual = 7.7431e-05, No Iterations 4
time step continuity errors : sum local = 0.000117483, global = 9.16476e-07, cumulative = -3.76653e-05
smoothSolver:  Solving for omega, Initial residual = 0.000145542, Final residual = 1.43992e-05, No Iterations 3
smoothSolver:  Solving for k, Initial residual = 0.00190776, Final residual = 0.000128189, No Iterations 4
ExecutionTime = 13.8 s  ClockTime = 14 s

forceCoeffs forceCoeffs1 write:
    Cm    = 0.158681
    Cd    = 0.408679
    Cl    = 0.07579
    Cl(f) = 0.196576
    Cl(r) = -0.120786

Time = 94

smoothSolver:  Solving for Ux, Initial residual = 0.000932899, Final residual = 9.30236e-05, No Iterations 10
smoothSolver:  Solving for Uy, Initial residual = 0.0226446, Final residual = 0.00190045, No Iterations 10
smoothSolver:  Solving for Uz, Initial residual = 0.019557, Final residual = 0.0017037, No Iterations 10
GAMG:  Solving for p, Initial residual = 0.00986191, Final residual = 7.78059e-05, No Iterations 4
time step continuity errors : sum local = 0.000118321, global = 9.02367e-07, cumulative = -3.67629e-05
smoothSolver:  Solving for omega, Initial residual = 0.000145014, Final residual = 1.42711e-05, No Iterations 3
smoothSolver:  Solving for k, Initial residual = 0.00189263, Final residual = 0.000127021, No Iterations 4
ExecutionTime = 13.85 s  ClockTime = 14 s

forceCoeffs forceCoeffs1 write:
    Cm    = 0.15919
    Cd    = 0.408921
    Cl    = 0.0749682
    Cl(f) = 0.196674
    Cl(r) = -0.121706

Time = 95

smoothSolver:  Solving for Ux, Initial residual = 0.00093147, Final residual = 9.2264e-05, No Iterations 10
smoothSolver:  Solving for Uy, Initial residual = 0.0226973, Final residual = 0.0018746, No Iterations 10
smoothSolver:  Solving for Uz, Initial residual = 0.0194332, Final residual = 0.0016714, No Iterations 10
GAMG:  Solving for p, Initial residual = 0.00984094, Final residual = 7.72372e-05, No Iterations 4
time step continuity errors : sum local = 0.000117696, global = 9.23905e-07, cumulative = -3.5839e-05
smoothSolver:  Solving for omega, Initial residual = 0.000143539, Final residual = 1.41019e-05, No Iterations 3
smoothSolver:  Solving for k, Initial residual = 0.00187262, Final residual = 0.000126179, No Iterations 4
ExecutionTime = 13.95 s  ClockTime = 14 s

forceCoeffs forceCoeffs1 write:
    Cm    = 0.159438
    Cd    = 0.409049
    Cl    = 0.074217
    Cl(f) = 0.196547
    Cl(r) = -0.12233

Time = 96

smoothSolver:  Solving for Ux, Initial residual = 0.000929638, Final residual = 9.11007e-05, No Iterations 10
smoothSolver:  Solving for Uy, Initial residual = 0.0226473, Final residual = 0.00184683, No Iterations 10
smoothSolver:  Solving for Uz, Initial residual = 0.0192605, Final residual = 0.00163408, No Iterations 10
GAMG:  Solving for p, Initial residual = 0.00980513, Final residual = 7.5128e-05, No Iterations 4
time step continuity errors : sum local = 0.00011464, global = 8.56446e-07, cumulative = -3.49826e-05
smoothSolver:  Solving for omega, Initial residual = 0.00014215, Final residual = 1.396e-05, No Iterations 3
smoothSolver:  Solving for k, Initial residual = 0.0018533, Final residual = 0.0001254, No Iterations 4
ExecutionTime = 13.99 s  ClockTime = 14 s

forceCoeffs forceCoeffs1 write:
    Cm    = 0.159474
    Cd    = 0.409103
    Cl    = 0.0736265
    Cl(f) = 0.196287
    Cl(r) = -0.12266

Time = 97

smoothSolver:  Solving for Ux, Initial residual = 0.000924929, Final residual = 8.95501e-05, No Iterations 10
smoothSolver:  Solving for Uy, Initial residual = 0.0223997, Final residual = 0.00182268, No Iterations 10
smoothSolver:  Solving for Uz, Initial residual = 0.0189873, Final residual = 0.00159695, No Iterations 10
GAMG:  Solving for p, Initial residual = 0.00974903, Final residual = 7.21348e-05, No Iterations 4
time step continuity errors : sum local = 0.000110162, global = 3.80593e-07, cumulative = -3.4602e-05
smoothSolver:  Solving for omega, Initial residual = 0.000140412, Final residual = 1.37933e-05, No Iterations 3
smoothSolver:  Solving for k, Initial residual = 0.00182871, Final residual = 0.00012455, No Iterations 4
ExecutionTime = 14.04 s  ClockTime = 14 s

forceCoeffs forceCoeffs1 write:
    Cm    = 0.159334
    Cd    = 0.409159
    Cl    = 0.0731551
    Cl(f) = 0.195912
    Cl(r) = -0.122757

Time = 98

smoothSolver:  Solving for Ux, Initial residual = 0.000916619, Final residual = 8.7907e-05, No Iterations 10
smoothSolver:  Solving for Uy, Initial residual = 0.0219668, Final residual = 0.00180091, No Iterations 10
smoothSolver:  Solving for Uz, Initial residual = 0.0186018, Final residual = 0.001558, No Iterations 10
GAMG:  Solving for p, Initial residual = 0.00966681, Final residual = 7.00065e-05, No Iterations 4
time step continuity errors : sum local = 0.00010693, global = -4.13451e-07, cumulative = -3.50154e-05
smoothSolver:  Solving for omega, Initial residual = 0.000139568, Final residual = 1.3689e-05, No Iterations 3
smoothSolver:  Solving for k, Initial residual = 0.00181142, Final residual = 0.0001235, No Iterations 4
ExecutionTime = 14.09 s  ClockTime = 15 s

forceCoeffs forceCoeffs1 write:
    Cm    = 0.159163
    Cd    = 0.409286
    Cl    = 0.0728499
    Cl(f) = 0.195588
    Cl(r) = -0.122738

Time = 99

smoothSolver:  Solving for Ux, Initial residual = 0.000904801, Final residual = 8.62787e-05, No Iterations 10
smoothSolver:  Solving for Uy, Initial residual = 0.0214114, Final residual = 0.00177223, No Iterations 10
smoothSolver:  Solving for Uz, Initial residual = 0.0181808, Final residual = 0.00152192, No Iterations 10
GAMG:  Solving for p, Initial residual = 0.00958016, Final residual = 7.00517e-05, No Iterations 4
time step continuity errors : sum local = 0.000106938, global = -8.20172e-07, cumulative = -3.58356e-05
smoothSolver:  Solving for omega, Initial residual = 0.000139021, Final residual = 1.35973e-05, No Iterations 3
smoothSolver:  Solving for k, Initial residual = 0.0017941, Final residual = 0.000122395, No Iterations 4
ExecutionTime = 14.14 s  ClockTime = 15 s

forceCoeffs forceCoeffs1 write:
    Cm    = 0.159
    Cd    = 0.409531
    Cl    = 0.0725567
    Cl(f) = 0.195278
    Cl(r) = -0.122722

Time = 100

smoothSolver:  Solving for Ux, Initial residual = 0.000890356, Final residual = 8.48112e-05, No Iterations 10
smoothSolver:  Solving for Uy, Initial residual = 0.0209299, Final residual = 0.00173553, No Iterations 10
smoothSolver:  Solving for Uz, Initial residual = 0.0178461, Final residual = 0.00149516, No Iterations 10
GAMG:  Solving for p, Initial residual = 0.00950102, Final residual = 7.19758e-05, No Iterations 4
time step continuity errors : sum local = 0.000109752, global = -6.93069e-07, cumulative = -3.65287e-05
smoothSolver:  Solving for omega, Initial residual = 0.000138423, Final residual = 1.35078e-05, No Iterations 3
smoothSolver:  Solving for k, Initial residual = 0.00177818, Final residual = 0.000121486, No Iterations 4
ExecutionTime = 14.25 s  ClockTime = 15 s

forceCoeffs forceCoeffs1 write:
    Cm    = 0.158934
    Cd    = 0.409845
    Cl    = 0.0723305
    Cl(f) = 0.195099
    Cl(r) = -0.122769

End

Finalising parallel run
